//--------------------------------------------------------------------------------
//Modelo de rede: padrão ANEEL
//--------------------------------------------------------------------------------
//Transformadores trifásicos: ligacação Dy1
//--------------------------------------------------------------------------------
//Reinicia o programa
Clear
//--------------------------------------------------------------------------------
//Bloco com dados de fronteira
New Circuit.Rede_CAI_teste_sem_trafos
~ bus1=3326 basekv=88.00000000 pu=1.000 phases=3 mvasc3=600.0 600.0
//--------------------------------------------------------------------------------
//Bloco com dados de arranjos Z0/Z1
New Linecode.64 nphases=3 basefreq=60 units=km normamps=500.0 r1=0.20000000 x1=0.40000001 c1=0.000   ! código=SNP_BAR_CABO_EPR_15KV_CU_3X500MM__ABCN_id64
New Linecode.121 nphases=3 basefreq=60 units=km normamps=500.0 r1=0.20000000 x1=0.40000001 c1=0.000   ! código=SNP_SING_PVC_CU_1X500_MM__ABCN_id121
New Linecode.122 nphases=3 basefreq=60 units=km normamps=500.0 r1=0.20000000 x1=0.40000001 c1=0.000   ! código=SNP_SING_PVC_CU_1X70_MM__ABCN_id122
New Linecode.144 nphases=3 basefreq=60 units=km normamps=500.0 r1=0.20000000 x1=0.40000001 c1=0.000   ! código=SNP_Sing_XLPE_1KV_CU_70_mm__NEUTRO_ABCN_id144
New Linecode.46 nphases=3 basefreq=60 units=km normamps=500.0 r1=0.20000000 x1=0.40000001 c1=0.000   ! código=SNP_SING_PVC_CU_35_MM__ABCN_id46
New Linecode.139 nphases=3 basefreq=60 units=km normamps=500.0 r1=0.20000000 x1=0.40000001 c1=0.000   ! código=SNP_Sing_XLPE_1KV_CU_1x240_mm__ABCN_id139
New Linecode.21 nphases=3 basefreq=60 units=km normamps=500.0 r1=0.20000000 x1=0.40000001 c1=0.000   ! código=SNP_QUAD_XLPE_1KV_CU_4X1X35MM2_ABCN_id21
New Linecode.57 nphases=3 basefreq=60 units=km normamps=500.0 r1=0.20000000 x1=0.40000001 c1=0.000   ! código=SNP_TRIPLEX_XLPE_CU_3X1X35_MM2_ABCN_id57
New Linecode.155 nphases=3 basefreq=60 units=km normamps=500.0 r1=0.20000000 x1=0.40000001 c1=0.000   ! código=SNP_TRIP_EPRL_35KV_AL_3X1X750MM__ABCN_id155
New Linecode.206 nphases=3 basefreq=60 units=km normamps=428.0 r1=0.12192000 x1=0.24334000 c1=0.000   ! código=AES_SPACER_XLPE_25KV_AL_300_MM__ABCN_id206
New Linecode.207 nphases=3 basefreq=60 units=km normamps=212.0 r1=0.51857001 x1=0.29923001 c1=0.000   ! código=AES_SPACER_XLPE_25KV_AL_70_MM__ABCN_id207
New Linecode.205 nphases=3 basefreq=60 units=km normamps=361.0 r1=0.19673000 x1=0.26192001 c1=0.000   ! código=AES_SPACER_XLPE_25KV_AL_185_MM__ABCN_id205
New Linecode.259 nphases=3 basefreq=60 units=km normamps=420.0 r1=0.09412000 x1=0.12342000 c1=0.000   ! código=AES_Triplex_EPR_15KV_CU_3x1x240_mm_ABCN_id259
New Linecode.248 nphases=3 basefreq=60 units=km normamps=216.0 r1=0.31514001 x1=0.17095999 c1=0.000   ! código=AES_Quadr_EPR_35KV_CU_3x1x70_mm__ABCN_id248
New Linecode.243 nphases=3 basefreq=60 units=km normamps=435.0 r1=0.09408000 x1=0.13315000 c1=0.000   ! código=AES_QUADR_EPR_25KV_CU_3X1X240_MM__ABCN_id243
New Linecode.228 nphases=3 basefreq=60 units=km normamps=219.0 r1=0.31524000 x1=0.14808001 c1=0.000   ! código=AES_TRIP_XLPE_15KV_CU_3X1X70MM__ABCN_id228
New Linecode.255 nphases=3 basefreq=60 units=km normamps=117.0 r1=1.03840005 x1=0.16366000 c1=0.000   ! código=AES_Quadr_XLPE_15KV_AL_3x1x35_mm__ABCN_id255
New Linecode.278 nphases=3 basefreq=60 units=km normamps=212.0 r1=0.51857001 x1=0.29923001 c1=0.000   ! código=AES_SPACER_XLPE_25KV_AL_70_MM__BCN_id278
New Linecode.300 nphases=3 basefreq=60 units=km normamps=212.0 r1=0.51857001 x1=0.29923001 c1=0.000   ! código=AES_SPACER_XLPE_25KV_AL_70_MM__ABN_id300
New Linecode.197 nphases=3 basefreq=60 units=km normamps=435.0 r1=0.15200000 x1=0.11980000 c1=0.000   ! código=AES_PR__REU_15KV_AL_3X1X240_120MM__ABCN_id197
New Linecode.240 nphases=3 basefreq=60 units=km normamps=450.0 r1=0.09341000 x1=0.11466000 c1=0.000   ! código=AES_Quadr_EPR_15KV_AL_3x1x400_mm__ABCN_id240
//--------------------------------------------------------------------------------
//Bloco com dados de arranjos Cabo/Fase
New Linecode.307 nphases=4 basefreq=60 units=km normamps=364.0 r1=0.21340024 x1=0.37136766 c1=0.000   ! código=AES001_SING_N__AL_336_4_MCM_ABCN_id307
New Linecode.308 nphases=4 basefreq=60 units=km normamps=71.0 r1=1.37152565 x1=0.44115028 c1=0.000   ! código=AES002_SING_N___CU_16_MM__ABCN_id308
New Linecode.321 nphases=3 basefreq=60 units=km normamps=71.0 r1=1.37151027 x1=0.47602144 c1=0.000   ! código=AES015_SING_N___CU_16_MM__CAN_id321
New Linecode.432 nphases=4 basefreq=60 units=km normamps=323.0 r1=0.18341924 x1=0.37502924 c1=0.000   ! código=AES126_SING_XLPE_CU_4_0_AWG_ABCN_id432
New Linecode.358 nphases=4 basefreq=60 units=km normamps=236.0 r1=0.31370249 x1=0.39351702 c1=0.000   ! código=AES052_SING_PVC_CU_1X70_MM__ABCN_id358
New Linecode.311 nphases=3 basefreq=60 units=km normamps=71.0 r1=1.37151003 x1=0.42163539 c1=0.000   ! código=AES005_SING_N___CU_16_MM__ABN_id311
New Linecode.310 nphases=4 basefreq=60 units=km normamps=193.0 r1=0.67813778 x1=0.37858734 c1=0.000   ! código=AES004_SING_PVC_AL_1_0_AWG_ABCN_id310
New Linecode.309 nphases=4 basefreq=60 units=km normamps=193.0 r1=0.67813689 x1=0.41592708 c1=0.000   ! código=AES003_SING_N__AL_1_0_AWG_ABCN_id309
New Linecode.315 nphases=2 basefreq=60 units=km normamps=71.0 r1=1.42926097 x1=0.95869344 c1=0.000   ! código=AES009_SING_N___CU_16_MM__CN_id315
New Linecode.312 nphases=3 basefreq=60 units=km normamps=71.0 r1=1.37151015 x1=0.42582524 c1=0.000   ! código=AES006_SING_N___CU_16_MM__BCN_id312
New Linecode.379 nphases=3 basefreq=60 units=km normamps=193.0 r1=0.67812008 x1=0.35908347 c1=0.000   ! código=AES073_SING_PVC_AL_1_0_AWG_ABN_id379
New Linecode.316 nphases=2 basefreq=60 units=km normamps=71.0 r1=1.42926097 x1=0.95869344 c1=0.000   ! código=AES010_SING_N___CU_16_MM__AN_id316
New Linecode.319 nphases=2 basefreq=60 units=km normamps=193.0 r1=0.73587096 x1=0.93348110 c1=0.000   ! código=AES013_SING_N__AL_1_0_AWG_CN_id319
New Linecode.359 nphases=2 basefreq=60 units=km normamps=193.0 r1=0.73587096 x1=0.89614153 c1=0.000   ! código=AES053_SING_PVC_AL_1_0_AWG_AN_id359
New Linecode.405 nphases=4 basefreq=60 units=km normamps=61.0 r1=1.37152541 x1=0.46789026 c1=0.000   ! código=AES099_SING_N__CU_16_MM__ABCN_id405
New Linecode.313 nphases=2 basefreq=60 units=km normamps=71.0 r1=1.42926097 x1=0.95869344 c1=0.000   ! código=AES007_SING_N___CU_16_MM__BN_id313
New Linecode.357 nphases=4 basefreq=60 units=km normamps=554.0 r1=0.12941776 x1=0.35234803 c1=0.000   ! código=AES051_SING_N__AL_556_5_MCM_ABCN_id357
New Linecode.317 nphases=2 basefreq=60 units=km normamps=193.0 r1=0.73587096 x1=0.93348110 c1=0.000   ! código=AES011_SING_N__AL_1_0_AWG_BN_id317
New Linecode.314 nphases=3 basefreq=60 units=km normamps=193.0 r1=0.67812008 x1=0.40061289 c1=0.000   ! código=AES008_SING_N__AL_1_0_AWG_BCN_id314
New Linecode.397 nphases=2 basefreq=60 units=km normamps=61.0 r1=1.42926097 x1=0.98543352 c1=0.000   ! código=AES091_SING_N__CU_16_MM__BN_id397
New Linecode.380 nphases=4 basefreq=60 units=km normamps=554.0 r1=0.12948781 x1=0.35045779 c1=0.000   ! código=AES074_SING_N__CAA_556_5_MCM_ABCN_id380
New Linecode.318 nphases=3 basefreq=60 units=km normamps=193.0 r1=0.67812008 x1=0.39642304 c1=0.000   ! código=AES012_SING_N__AL_1_0_AWG_ABN_id318
New Linecode.472 nphases=3 basefreq=60 units=km normamps=61.0 r1=1.37151027 x1=0.50276154 c1=0.000   ! código=AES166_SING_N__CU_16_MM__CAN_id472
New Linecode.352 nphases=3 basefreq=60 units=km normamps=193.0 r1=0.67812026 x1=0.45080909 c1=0.000   ! código=AES046_SING_N__AL_1_0_AWG_CAN_id352
New Linecode.447 nphases=3 basefreq=60 units=km normamps=61.0 r1=1.37151003 x1=0.44837546 c1=0.000   ! código=AES141_SING_N__CU_16_MM__ABN_id447
New Linecode.370 nphases=2 basefreq=60 units=km normamps=364.0 r1=0.27114093 x1=0.88893354 c1=0.000   ! código=AES064_SING_N__AL_336_4_MCM_AN_id370
New Linecode.436 nphases=4 basefreq=60 units=km normamps=71.0 r1=3.65569806 x1=0.50431466 c1=0.000   ! código=AES130_SING_N__CU_6_MM__ABCN_id436
//--------------------------------------------------------------------------------
//Bloco com dados de curvas típicas de demanda
New Loadshape.221  npts=24  interval=1  mult=(0.98802318 0.88500968 0.81049210 0.78461502 0.75908133 0.74241084 0.76963982 0.80480593 0.86259743 0.90485707 0.92762777 0.89857360 0.98382700 1.03174907 0.97327998 1.04404931 1.08630272 1.10348275 1.19519472 1.41969298 1.31428476 1.29648025 1.28227387 1.13164882)    ! código=Residencial
New Loadshape.222  npts=24  interval=1  mult=(0.66184809 0.64107463 0.65094664 0.67845975 0.73578879 0.91535083 1.01917929 1.20201301 1.25879653 1.26922296 1.31908241 1.35313228 1.19477469 1.24230900 1.30989296 1.26039346 1.18945635 1.17018301 1.01761601 0.95088503 0.83115784 0.75428989 0.67735159 0.69679492)    ! código=Industrial
New Loadshape.223  npts=24  interval=1  mult=(0.83191408 0.81189009 0.79701910 0.79076673 0.76592310 0.77533041 0.69708322 0.85594726 1.07784279 1.21439804 1.24538894 1.30135240 1.19887726 1.17732707 1.12801718 1.09414405 1.08995797 1.11538187 1.15832661 1.12313018 1.05811680 0.95220002 0.93000446 0.80966040)    ! código=Rural
New Loadshape.224  npts=24  interval=1  mult=(0.90103504 0.90717216 0.89595885 0.88158390 0.88732377 0.88428147 0.90327382 0.99314485 1.12772309 1.19717264 1.23347049 1.23295293 1.14892882 1.16497417 1.19143695 1.19205001 1.14986728 1.06412816 0.87212055 0.83373753 0.80591526 0.81885063 0.86283544 0.85006217)    ! código=A4
New Loadshape.225  npts=24  interval=1  mult=(0.67255972 0.64485739 0.64018344 0.62167027 0.61216725 0.61277292 0.65417129 0.76082965 1.04763658 1.28695544 1.41175977 1.44999759 1.42638176 1.34339058 1.35311128 1.35959760 1.29437177 1.29561484 1.19585957 1.09304591 0.95405524 0.82880560 0.74591732 0.69428721)    ! código=Comercial
New Loadshape.226  npts=24  interval=1  mult=(0.67255972 0.64485739 0.64018344 0.62167027 0.61216725 0.61277292 0.65417129 0.76082965 1.04763658 1.28695544 1.41175977 1.44999759 1.42638176 1.34339058 1.35311128 1.35959760 1.29437177 1.29561484 1.19585957 1.09304591 0.95405524 0.82880560 0.74591732 0.69428721)    ! código=Outros
//--------------------------------------------------------------------------------
//Bloco com dados de curvas típicas de IP
New Loadshape.227  npts=24  interval=1  mult=(0.99299997 1.00000000 0.99800003 0.98199999 0.97700000 0.98799998 0.31400001 0.14700000 0.00000000 0.00000000 0.00000000 0.00000000 0.00000000 0.00000000 0.00000000 0.00000000 0.01700000 0.64399999 0.97700000 0.97399998 0.97899997 0.98199999 0.97700000 0.99199998)    ! código=IP
//--------------------------------------------------------------------------------
//Bloco com dados de curvas próprias de demanda
New Loadshape.431  npts=24  interval=1   ! código=152ET025018
~ pmult=(0.99370033 0.93367253 0.90348570 0.88912211 0.85960129 0.82353898 0.82079314 0.81865395 0.94168979 0.96688109 1.06850712 1.03935278 1.03569299 0.99803738 1.02827529 0.98882339 0.96685960 0.99424749 1.09791390 1.24164335 1.21695825 1.18519026 1.14767316 1.03968613)
~ qmult=(0.99148528 0.93391312 0.90337497 0.88803915 0.86041055 0.82323190 0.82066443 0.82050415 0.94302359 0.96735835 1.06841005 1.03931855 1.03648759 0.99745092 1.02859774 0.98702855 0.96719325 0.99496106 1.09784600 1.24161754 1.21690316 1.18658458 1.14591471 1.03968081)
New Loadshape.432  npts=24  interval=1   ! código=152IP19G431
~ pmult=(1.50000000 1.50000000 1.50000000 1.50000000 1.50000000 1.50000000 1.50000000 1.50000000 0.00000000 0.00000000 0.00000000 0.00000000 0.00000000 0.00000000 0.00000000 0.00000000 1.50000000 1.50000000 1.50000000 1.50000000 1.50000000 1.50000000 1.50000000 1.50000000)
~ qmult=(1.50000000 1.50000000 1.50000000 1.50000000 1.50000000 1.50000000 1.50000000 1.50000000 0.00000000 0.00000000 0.00000000 0.00000000 0.00000000 0.00000000 0.00000000 0.00000000 1.50000000 1.50000000 1.50000000 1.50000000 1.50000000 1.50000000 1.50000000 1.50000000)
New Loadshape.433  npts=24  interval=1   ! código=152ET000657
~ pmult=(0.73500536 0.70604704 0.69414859 0.67685435 0.66404373 0.65211720 0.65020560 0.73569667 1.05251372 1.25363161 1.40558534 1.40976201 1.36110538 1.24797781 1.24954529 1.24382633 1.19524856 1.18665516 1.15774510 1.11089359 1.03995707 0.94532259 0.84729368 0.77881823)
~ qmult=(0.73522167 0.70600886 0.69476599 0.67741822 0.66351752 0.65204446 0.65019248 0.73559052 1.05301193 1.25311551 1.40568104 1.40980290 1.36027897 1.24813201 1.24978937 1.24391499 1.19483865 1.18636066 1.15800350 1.11139540 1.03968978 0.94556640 0.84706094 0.77859821)
New Loadshape.430  npts=24  interval=1   ! código=152ET025407
~ pmult=(0.86126635 0.80083726 0.76737232 0.74742792 0.72716816 0.71257153 0.74041443 0.79427217 0.95809574 1.07559355 1.15877516 1.15913635 1.17780413 1.15134608 1.14671659 1.16048043 1.14018931 1.15530146 1.16971933 1.23724431 1.13722963 1.07125228 1.02387067 0.92591481)
~ qmult=(0.86191616 0.80056152 0.76672161 0.74811904 0.72662700 0.71282338 0.73998580 0.79380363 0.95805203 1.07500737 1.15898278 1.15930128 1.17678187 1.15181930 1.14674773 1.16110889 1.13993683 1.15595077 1.17054067 1.23795335 1.13793302 1.07091796 1.02333684 0.92507116)
New Loadshape.429  npts=24  interval=1   ! código=152ET007562
~ pmult=(0.72156756 0.68216558 0.66664126 0.64698408 0.63499059 0.63291244 0.67210962 0.76766147 1.01889039 1.22759575 1.33654886 1.36433267 1.35762989 1.29497648 1.29410379 1.31057645 1.26204776 1.26576674 1.19575624 1.14379134 1.01001757 0.90145984 0.82924140 0.76223222)
~ qmult=(0.72156762 0.68216552 0.66664125 0.64698409 0.63499067 0.63291248 0.67210954 0.76766147 1.01889042 1.22759566 1.33654873 1.36433282 1.35762996 1.29497638 1.29410382 1.31057652 1.26204787 1.26576666 1.19575638 1.14379125 1.01001751 0.90145979 0.82924140 0.76223220)
New Loadshape.434  npts=24  interval=1   ! código=152ET004501
~ pmult=(0.98870675 0.92171419 0.88522852 0.86834216 0.83951555 0.80884678 0.81951620 0.82544523 0.92529915 0.95451174 1.03683086 1.01346274 1.03025187 1.01462494 1.03346224 1.01258960 0.99792842 1.02738949 1.11938304 1.26966547 1.21905661 1.18646683 1.15703576 1.04472587)
~ qmult=(0.98898761 0.92191034 0.88586952 0.86866493 0.83957485 0.80860822 0.82021827 0.82506918 0.92557573 0.95521800 1.03637803 1.01301286 1.03006882 1.01476281 1.03297479 1.01185988 0.99792807 1.02740342 1.11922622 1.26935319 1.21941676 1.18732353 1.15713138 1.04346359)
New Loadshape.438  npts=24  interval=1   ! código=152ET029938
~ pmult=(0.67255973 0.64485742 0.64018344 0.62167024 0.61216724 0.61277294 0.65417131 0.76082964 1.04763661 1.28695550 1.41175975 1.44999756 1.42638172 1.34339064 1.35311126 1.35959761 1.29437172 1.29561487 1.19585952 1.09304596 0.95405526 0.82880559 0.74591733 0.69428718)
~ qmult=(0.67255971 0.64485735 0.64018341 0.62167031 0.61216721 0.61277293 0.65417129 0.76082963 1.04763663 1.28695546 1.41175969 1.44999764 1.42638182 1.34339051 1.35311132 1.35959753 1.29437179 1.29561485 1.19585954 1.09304598 0.95405525 0.82880560 0.74591734 0.69428721)
New Loadshape.436  npts=24  interval=1   ! código=152IP19G299
~ pmult=(1.50000000 1.50000000 1.50000000 1.50000000 1.50000000 1.50000000 1.50000000 1.50000000 0.00000000 0.00000000 0.00000000 0.00000000 0.00000000 0.00000000 0.00000000 0.00000000 1.50000000 1.50000000 1.50000000 1.50000000 1.50000000 1.50000000 1.50000000 1.50000000)
~ qmult=(1.50000000 1.50000000 1.50000000 1.50000000 1.50000000 1.50000000 1.50000000 1.50000000 0.00000000 0.00000000 0.00000000 0.00000000 0.00000000 0.00000000 0.00000000 0.00000000 1.50000000 1.50000000 1.50000000 1.50000000 1.50000000 1.50000000 1.50000000 1.50000000)
New Loadshape.437  npts=24  interval=1   ! código=152ET071563
~ pmult=(0.92697060 0.87030302 0.83910829 0.82167763 0.79667957 0.76944158 0.77022953 0.79555748 0.96081773 1.03269137 1.13782335 1.11645746 1.11212576 1.06553374 1.07688872 1.06029493 1.03944142 1.05627461 1.12538819 1.23041801 1.18424630 1.13873804 1.08813471 0.98475795)
~ qmult=(0.92686329 0.86978460 0.83947820 0.82168959 0.79665656 0.77002656 0.77037859 0.79551030 0.96110506 1.03310673 1.13754977 1.11591596 1.11153923 1.06571514 1.07630764 1.05981722 1.03958020 1.05604156 1.12529790 1.23074055 1.18445504 1.13878733 1.08848361 0.98516938)
New Loadshape.435  npts=24  interval=1   ! código=152ET132570
~ pmult=(0.00000000 0.00000000 0.00000000 0.00000000 0.00000000 0.00000000 0.00000000 0.00000000 0.00000000 0.00000000 0.00000000 0.00000000 0.00000000 0.00000000 0.00000000 0.00000000 0.00000000 0.00000000 0.00000000 0.00000000 0.00000000 0.00000000 0.00000000 0.00000000)
~ qmult=(0.00000000 0.00000000 0.00000000 0.00000000 0.00000000 0.00000000 0.00000000 0.00000000 0.00000000 0.00000000 0.00000000 0.00000000 0.00000000 0.00000000 0.00000000 0.00000000 0.00000000 0.00000000 0.00000000 0.00000000 0.00000000 0.00000000 0.00000000 0.00000000)
New Loadshape.447  npts=24  interval=1   ! código=152ET023400
~ pmult=(0.00000000 0.00000000 0.00000000 0.00000000 0.00000000 0.00000000 0.00000000 0.00000000 0.00000000 0.00000000 0.00000000 0.00000000 0.00000000 0.00000000 0.00000000 0.00000000 0.00000000 0.00000000 0.00000000 0.00000000 0.00000000 0.00000000 0.00000000 0.00000000)
~ qmult=(0.00000000 0.00000000 0.00000000 0.00000000 0.00000000 0.00000000 0.00000000 0.00000000 0.00000000 0.00000000 0.00000000 0.00000000 0.00000000 0.00000000 0.00000000 0.00000000 0.00000000 0.00000000 0.00000000 0.00000000 0.00000000 0.00000000 0.00000000 0.00000000)
New Loadshape.445  npts=24  interval=1   ! código=152IP19G297
~ pmult=(1.50000000 1.50000000 1.50000000 1.50000000 1.50000000 1.50000000 1.50000000 1.50000000 0.00000000 0.00000000 0.00000000 0.00000000 0.00000000 0.00000000 0.00000000 0.00000000 1.50000000 1.50000000 1.50000000 1.50000000 1.50000000 1.50000000 1.50000000 1.50000000)
~ qmult=(1.50000000 1.50000000 1.50000000 1.50000000 1.50000000 1.50000000 1.50000000 1.50000000 0.00000000 0.00000000 0.00000000 0.00000000 0.00000000 0.00000000 0.00000000 0.00000000 1.50000000 1.50000000 1.50000000 1.50000000 1.50000000 1.50000000 1.50000000 1.50000000)
New Loadshape.446  npts=24  interval=1   ! código=152IP19G613
~ pmult=(1.50000000 1.50000000 1.50000000 1.50000000 1.50000000 1.50000000 1.50000000 1.50000000 0.00000000 0.00000000 0.00000000 0.00000000 0.00000000 0.00000000 0.00000000 0.00000000 1.50000000 1.50000000 1.50000000 1.50000000 1.50000000 1.50000000 1.50000000 1.50000000)
~ qmult=(1.50000000 1.50000000 1.50000000 1.50000000 1.50000000 1.50000000 1.50000000 1.50000000 0.00000000 0.00000000 0.00000000 0.00000000 0.00000000 0.00000000 0.00000000 0.00000000 1.50000000 1.50000000 1.50000000 1.50000000 1.50000000 1.50000000 1.50000000 1.50000000)
New Loadshape.449  npts=24  interval=1   ! código=152ET024923
~ pmult=(0.72998758 0.70909642 0.69865076 0.68217884 0.67012623 0.65244906 0.61749641 0.70186482 1.08353138 1.29003307 1.47805410 1.46359106 1.38123138 1.22575249 1.22213665 1.20606650 1.16026650 1.13696476 1.13455425 1.08594196 1.06103319 0.97465597 0.85212092 0.78221570)
~ qmult=(0.72993043 0.70918307 0.69880939 0.68183427 0.67051752 0.65259932 0.61770601 0.70163856 1.08357896 1.29010962 1.47777906 1.46363314 1.38158673 1.22598140 1.22220912 1.20617707 1.15996696 1.13639043 1.13450429 1.08546501 1.06094546 0.97512668 0.85158555 0.78274194)
New Loadshape.450  npts=24  interval=1   ! código=152ET051639
~ pmult=(0.67255977 0.64485743 0.64018345 0.62167023 0.61216723 0.61277293 0.65417131 0.76082961 1.04763663 1.28695544 1.41175973 1.44999756 1.42638171 1.34339059 1.35311125 1.35959759 1.29437174 1.29561484 1.19585958 1.09304599 0.95405525 0.82880562 0.74591732 0.69428717)
~ qmult=(0.67255975 0.64485739 0.64018342 0.62167031 0.61216726 0.61277293 0.65417130 0.76082963 1.04763661 1.28695543 1.41175966 1.44999772 1.42638187 1.34339049 1.35311127 1.35959753 1.29437180 1.29561476 1.19585961 1.09304597 0.95405519 0.82880557 0.74591733 0.69428719)
New Loadshape.453  npts=24  interval=1   ! código=152IP19G481
~ pmult=(1.50000000 1.50000000 1.50000000 1.50000000 1.50000000 1.50000000 1.50000000 1.50000000 0.00000000 0.00000000 0.00000000 0.00000000 0.00000000 0.00000000 0.00000000 0.00000000 1.50000000 1.50000000 1.50000000 1.50000000 1.50000000 1.50000000 1.50000000 1.50000000)
~ qmult=(1.50000000 1.50000000 1.50000000 1.50000000 1.50000000 1.50000000 1.50000000 1.50000000 0.00000000 0.00000000 0.00000000 0.00000000 0.00000000 0.00000000 0.00000000 0.00000000 1.50000000 1.50000000 1.50000000 1.50000000 1.50000000 1.50000000 1.50000000 1.50000000)
New Loadshape.454  npts=24  interval=1   ! código=152IP19G479
~ pmult=(1.50000000 1.50000000 1.50000000 1.50000000 1.50000000 1.50000000 1.50000000 1.50000000 0.00000000 0.00000000 0.00000000 0.00000000 0.00000000 0.00000000 0.00000000 0.00000000 1.50000000 1.50000000 1.50000000 1.50000000 1.50000000 1.50000000 1.50000000 1.50000000)
~ qmult=(1.50000000 1.50000000 1.50000000 1.50000000 1.50000000 1.50000000 1.50000000 1.50000000 0.00000000 0.00000000 0.00000000 0.00000000 0.00000000 0.00000000 0.00000000 0.00000000 1.50000000 1.50000000 1.50000000 1.50000000 1.50000000 1.50000000 1.50000000 1.50000000)
New Loadshape.443  npts=24  interval=1   ! código=152IP19G433
~ pmult=(1.50000000 1.50000000 1.50000000 1.50000000 1.50000000 1.50000000 1.50000000 1.50000000 0.00000000 0.00000000 0.00000000 0.00000000 0.00000000 0.00000000 0.00000000 0.00000000 1.50000000 1.50000000 1.50000000 1.50000000 1.50000000 1.50000000 1.50000000 1.50000000)
~ qmult=(1.50000000 1.50000000 1.50000000 1.50000000 1.50000000 1.50000000 1.50000000 1.50000000 0.00000000 0.00000000 0.00000000 0.00000000 0.00000000 0.00000000 0.00000000 0.00000000 1.50000000 1.50000000 1.50000000 1.50000000 1.50000000 1.50000000 1.50000000 1.50000000)
New Loadshape.455  npts=24  interval=1   ! código=152IP19F043
~ pmult=(1.50000000 1.50000000 1.50000000 1.50000000 1.50000000 1.50000000 1.50000000 1.50000000 0.00000000 0.00000000 0.00000000 0.00000000 0.00000000 0.00000000 0.00000000 0.00000000 1.50000000 1.50000000 1.50000000 1.50000000 1.50000000 1.50000000 1.50000000 1.50000000)
~ qmult=(1.50000000 1.50000000 1.50000000 1.50000000 1.50000000 1.50000000 1.50000000 1.50000000 0.00000000 0.00000000 0.00000000 0.00000000 0.00000000 0.00000000 0.00000000 0.00000000 1.50000000 1.50000000 1.50000000 1.50000000 1.50000000 1.50000000 1.50000000 1.50000000)
New Loadshape.442  npts=24  interval=1   ! código=152IP19G615
~ pmult=(1.50000000 1.50000000 1.50000000 1.50000000 1.50000000 1.50000000 1.50000000 1.50000000 0.00000000 0.00000000 0.00000000 0.00000000 0.00000000 0.00000000 0.00000000 0.00000000 1.50000000 1.50000000 1.50000000 1.50000000 1.50000000 1.50000000 1.50000000 1.50000000)
~ qmult=(1.50000000 1.50000000 1.50000000 1.50000000 1.50000000 1.50000000 1.50000000 1.50000000 0.00000000 0.00000000 0.00000000 0.00000000 0.00000000 0.00000000 0.00000000 0.00000000 1.50000000 1.50000000 1.50000000 1.50000000 1.50000000 1.50000000 1.50000000 1.50000000)
New Loadshape.444  npts=24  interval=1   ! código=152ET024031
~ pmult=(0.67255973 0.64485743 0.64018345 0.62167023 0.61216724 0.61277297 0.65417130 0.76082963 1.04763667 1.28695548 1.41175970 1.44999760 1.42638167 1.34339059 1.35311124 1.35959759 1.29437170 1.29561489 1.19585951 1.09304600 0.95405523 0.82880562 0.74591734 0.69428719)
~ qmult=(0.67255972 0.64485741 0.64018342 0.62167033 0.61216722 0.61277293 0.65417127 0.76082962 1.04763659 1.28695541 1.41175970 1.44999763 1.42638181 1.34339055 1.35311131 1.35959755 1.29437184 1.29561486 1.19585954 1.09304591 0.95405521 0.82880562 0.74591733 0.69428719)
New Loadshape.451  npts=24  interval=1   ! código=152IP19G023
~ pmult=(1.50000000 1.50000000 1.50000000 1.50000000 1.50000000 1.50000000 1.50000000 1.50000000 0.00000000 0.00000000 0.00000000 0.00000000 0.00000000 0.00000000 0.00000000 0.00000000 1.50000000 1.50000000 1.50000000 1.50000000 1.50000000 1.50000000 1.50000000 1.50000000)
~ qmult=(1.50000000 1.50000000 1.50000000 1.50000000 1.50000000 1.50000000 1.50000000 1.50000000 0.00000000 0.00000000 0.00000000 0.00000000 0.00000000 0.00000000 0.00000000 0.00000000 1.50000000 1.50000000 1.50000000 1.50000000 1.50000000 1.50000000 1.50000000 1.50000000)
New Loadshape.448  npts=24  interval=1   ! código=354ET054240
~ pmult=(0.00000000 0.00000000 0.00000000 0.00000000 0.00000000 0.00000000 0.00000000 0.00000000 0.00000000 0.00000000 0.00000000 0.00000000 0.00000000 0.00000000 0.00000000 0.00000000 0.00000000 0.00000000 0.00000000 0.00000000 0.00000000 0.00000000 0.00000000 0.00000000)
~ qmult=(0.00000000 0.00000000 0.00000000 0.00000000 0.00000000 0.00000000 0.00000000 0.00000000 0.00000000 0.00000000 0.00000000 0.00000000 0.00000000 0.00000000 0.00000000 0.00000000 0.00000000 0.00000000 0.00000000 0.00000000 0.00000000 0.00000000 0.00000000 0.00000000)
New Loadshape.424  npts=24  interval=1   ! código=152IP19F046
~ pmult=(1.50000000 1.50000000 1.50000000 1.50000000 1.50000000 1.50000000 1.50000000 1.50000000 0.00000000 0.00000000 0.00000000 0.00000000 0.00000000 0.00000000 0.00000000 0.00000000 1.50000000 1.50000000 1.50000000 1.50000000 1.50000000 1.50000000 1.50000000 1.50000000)
~ qmult=(1.50000000 1.50000000 1.50000000 1.50000000 1.50000000 1.50000000 1.50000000 1.50000000 0.00000000 0.00000000 0.00000000 0.00000000 0.00000000 0.00000000 0.00000000 0.00000000 1.50000000 1.50000000 1.50000000 1.50000000 1.50000000 1.50000000 1.50000000 1.50000000)
New Loadshape.423  npts=24  interval=1   ! código=152IP19F045
~ pmult=(1.50000000 1.50000000 1.50000000 1.50000000 1.50000000 1.50000000 1.50000000 1.50000000 0.00000000 0.00000000 0.00000000 0.00000000 0.00000000 0.00000000 0.00000000 0.00000000 1.50000000 1.50000000 1.50000000 1.50000000 1.50000000 1.50000000 1.50000000 1.50000000)
~ qmult=(1.50000000 1.50000000 1.50000000 1.50000000 1.50000000 1.50000000 1.50000000 1.50000000 0.00000000 0.00000000 0.00000000 0.00000000 0.00000000 0.00000000 0.00000000 0.00000000 1.50000000 1.50000000 1.50000000 1.50000000 1.50000000 1.50000000 1.50000000 1.50000000)
New Loadshape.457  npts=24  interval=1   ! código=152ET133432
~ pmult=(0.00000000 0.00000000 0.00000000 0.00000000 0.00000000 0.00000000 0.00000000 0.00000000 0.00000000 0.00000000 0.00000000 0.00000000 0.00000000 0.00000000 0.00000000 0.00000000 0.00000000 0.00000000 0.00000000 0.00000000 0.00000000 0.00000000 0.00000000 0.00000000)
~ qmult=(0.00000000 0.00000000 0.00000000 0.00000000 0.00000000 0.00000000 0.00000000 0.00000000 0.00000000 0.00000000 0.00000000 0.00000000 0.00000000 0.00000000 0.00000000 0.00000000 0.00000000 0.00000000 0.00000000 0.00000000 0.00000000 0.00000000 0.00000000 0.00000000)
New Loadshape.452  npts=24  interval=1   ! código=354ET065199
~ pmult=(0.00000000 0.00000000 0.00000000 0.00000000 0.00000000 0.00000000 0.00000000 0.00000000 0.00000000 0.00000000 0.00000000 0.00000000 0.00000000 0.00000000 0.00000000 0.00000000 0.00000000 0.00000000 0.00000000 0.00000000 0.00000000 0.00000000 0.00000000 0.00000000)
~ qmult=(0.00000000 0.00000000 0.00000000 0.00000000 0.00000000 0.00000000 0.00000000 0.00000000 0.00000000 0.00000000 0.00000000 0.00000000 0.00000000 0.00000000 0.00000000 0.00000000 0.00000000 0.00000000 0.00000000 0.00000000 0.00000000 0.00000000 0.00000000 0.00000000)
New Loadshape.439  npts=24  interval=1   ! código=354IP19F177
~ pmult=(1.50000000 1.50000000 1.50000000 1.50000000 1.50000000 1.50000000 1.50000000 1.50000000 0.00000000 0.00000000 0.00000000 0.00000000 0.00000000 0.00000000 0.00000000 0.00000000 1.50000000 1.50000000 1.50000000 1.50000000 1.50000000 1.50000000 1.50000000 1.50000000)
~ qmult=(1.50000000 1.50000000 1.50000000 1.50000000 1.50000000 1.50000000 1.50000000 1.50000000 0.00000000 0.00000000 0.00000000 0.00000000 0.00000000 0.00000000 0.00000000 0.00000000 1.50000000 1.50000000 1.50000000 1.50000000 1.50000000 1.50000000 1.50000000 1.50000000)
New Loadshape.440  npts=24  interval=1   ! código=354IP19F031
~ pmult=(1.50000000 1.50000000 1.50000000 1.50000000 1.50000000 1.50000000 1.50000000 1.50000000 0.00000000 0.00000000 0.00000000 0.00000000 0.00000000 0.00000000 0.00000000 0.00000000 1.50000000 1.50000000 1.50000000 1.50000000 1.50000000 1.50000000 1.50000000 1.50000000)
~ qmult=(1.50000000 1.50000000 1.50000000 1.50000000 1.50000000 1.50000000 1.50000000 1.50000000 0.00000000 0.00000000 0.00000000 0.00000000 0.00000000 0.00000000 0.00000000 0.00000000 1.50000000 1.50000000 1.50000000 1.50000000 1.50000000 1.50000000 1.50000000 1.50000000)
New Loadshape.441  npts=24  interval=1   ! código=354IP19F179
~ pmult=(1.50000000 1.50000000 1.50000000 1.50000000 1.50000000 1.50000000 1.50000000 1.50000000 0.00000000 0.00000000 0.00000000 0.00000000 0.00000000 0.00000000 0.00000000 0.00000000 1.50000000 1.50000000 1.50000000 1.50000000 1.50000000 1.50000000 1.50000000 1.50000000)
~ qmult=(1.50000000 1.50000000 1.50000000 1.50000000 1.50000000 1.50000000 1.50000000 1.50000000 0.00000000 0.00000000 0.00000000 0.00000000 0.00000000 0.00000000 0.00000000 0.00000000 1.50000000 1.50000000 1.50000000 1.50000000 1.50000000 1.50000000 1.50000000 1.50000000)
New Loadshape.462  npts=24  interval=1   ! código=152IP18G499
~ pmult=(1.50000000 1.50000000 1.50000000 1.50000000 1.50000000 1.50000000 1.50000000 1.50000000 0.00000000 0.00000000 0.00000000 0.00000000 0.00000000 0.00000000 0.00000000 0.00000000 1.50000000 1.50000000 1.50000000 1.50000000 1.50000000 1.50000000 1.50000000 1.50000000)
~ qmult=(1.50000000 1.50000000 1.50000000 1.50000000 1.50000000 1.50000000 1.50000000 1.50000000 0.00000000 0.00000000 0.00000000 0.00000000 0.00000000 0.00000000 0.00000000 0.00000000 1.50000000 1.50000000 1.50000000 1.50000000 1.50000000 1.50000000 1.50000000 1.50000000)
New Loadshape.461  npts=24  interval=1   ! código=152IP18G498
~ pmult=(1.50000000 1.50000000 1.50000000 1.50000000 1.50000000 1.50000000 1.50000000 1.50000000 0.00000000 0.00000000 0.00000000 0.00000000 0.00000000 0.00000000 0.00000000 0.00000000 1.50000000 1.50000000 1.50000000 1.50000000 1.50000000 1.50000000 1.50000000 1.50000000)