New Line.1311112 Bus1=6023.1.2.3 Bus2=6065.1.2.3 Length=0.03052 LineCode=96
New Line.1306019 Bus1=6023.1.2.3 Bus2=6022.1.2.3 Length=0.02425 LineCode=96
New Line.1306020 Bus1=6022.1.2.3 Bus2=6025.1.2.3 Length=0.02708 LineCode=96
New Line.1306017 Bus1=6025.1.2.3 Bus2=6024.1.2.3 Length=0.033 LineCode=96
New Line.3548834 Bus1=4215.1.2.3 Bus2=6024.1.2.3 Length=0.03881 LineCode=96
New Line.3548826 Bus1=4215.1.2.3 Bus2=4216.1.2.3 Length=0.05894 LineCode=80
New Line.3548142 Bus1=4216.1.2.3 Bus2=6039.1.2.3 Length=0.0332 LineCode=96
New Line.1306000 Bus1=6038.1.2.3 Bus2=6039.1.2.3 Length=0.03221 LineCode=96
New Line.1306001 Bus1=6038.1.2.3 Bus2=6037.1.2.3 Length=0.0369 LineCode=74
New Line.1306002 Bus1=6036.1.2.3 Bus2=6037.1.2.3 Length=0.03467 LineCode=96
New Line.1306003 Bus1=6035.1.2.3 Bus2=6036.1.2.3 Length=0.03566 LineCode=80
New Line.1306004 Bus1=6034.1.2.3 Bus2=6035.1.2.3 Length=0.03241 LineCode=96
New Line.1306005 Bus1=6033.1.2.3 Bus2=6034.1.2.3 Length=0.03823 LineCode=96
New Line.1306006 Bus1=6032.1.2.3 Bus2=6033.1.2.3 Length=0.04585 LineCode=96
New Line.1306007 Bus1=6031.1.2.3 Bus2=6032.1.2.3 Length=0.02957 LineCode=96
New Line.1306008 Bus1=6030.1.2.3 Bus2=6031.1.2.3 Length=0.03112 LineCode=96
New Line.1306009 Bus1=6030.1.2.3 Bus2=6029.1.2.3 Length=0.03849 LineCode=96
New Line.1306010 Bus1=6028.1.2.3 Bus2=6029.1.2.3 Length=0.05598 LineCode=96
New Line.1306011 Bus1=6027.1.2.3 Bus2=6028.1.2.3 Length=0.03627 LineCode=96
New Line.1306012 Bus1=6026.1.2.3 Bus2=6027.1.2.3 Length=0.02283 LineCode=96
New Line.1306013 Bus1=6026.1.2.3 Bus2=6048.1.2.3 Length=0.04654 LineCode=96
New Line.3927480 Bus1=6048.1.2.3 Bus2=4197.1.2.3 Length=0.00865 LineCode=96
New Line.1305995 Bus1=6057.1.2.3 Bus2=6048.1.2.3 Length=0.07505 LineCode=74
New Line.1305987 Bus1=6056.1.2.3 Bus2=6057.1.2.3 Length=0.03231 LineCode=74
New Line.1305988 Bus1=6055.1.2.3 Bus2=6056.1.2.3 Length=0.04231 LineCode=74
New Line.1305989 Bus1=6055.1.2.3 Bus2=6054.1.2.3 Length=0.03449 LineCode=74
New Line.1305990 Bus1=6053.1.2.3 Bus2=6054.1.2.3 Length=0.03423 LineCode=74
New Line.1305991 Bus1=6052.1.2.3 Bus2=6053.1.2.3 Length=0.03466 LineCode=74
New Line.1305992 Bus1=6051.1.2.3 Bus2=6052.1.2.3 Length=0.03423 LineCode=74
New Line.1305993 Bus1=6050.1.2.3 Bus2=6051.1.2.3 Length=0.03679 LineCode=74
New Line.1305994 Bus1=6049.1.2.3 Bus2=6050.1.2.3 Length=0.04317 LineCode=74
New Line.1307376 Bus1=6062.1.2.3 Bus2=6049.1.2.3 Length=0.03646 LineCode=74
New Line.1305983 Bus1=6061.1.2.3 Bus2=6062.1.2.3 Length=0.03322 LineCode=74
New Line.1305984 Bus1=6061.1.2.3 Bus2=6060.1.2.3 Length=0.0367 LineCode=74
New Line.1305985 Bus1=6060.1.2.3 Bus2=6059.1.2.3 Length=0.02703 LineCode=74
New Line.1305986 Bus1=6058.1.2.3 Bus2=6059.1.2.3 Length=0.03458 LineCode=74
New Line.1307206 Bus1=5167.1.2.3 Bus2=6058.1.2.3 Length=0.03115 LineCode=96
New Line.1307380 Bus1=5071.1.2.3 Bus2=5166.1.2.3 Length=0.13664 LineCode=96
New Line.1308319 Bus1=4284.1.2.3 Bus2=5071.1.2.3 Length=0.06173 LineCode=96
New Line.1308320 Bus1=4284.1.2.3 Bus2=4285.1.2.3 Length=0.06757 LineCode=96
New Line.1308318 Bus1=4285.1.2.3 Bus2=4286.1.2.3 Length=0.23771 LineCode=96
New Line.1308317 Bus1=5165.1.2.3 Bus2=4286.1.2.3 Length=0.15105 LineCode=96
New Line.1307207 Bus1=5165.1.2.3 Bus2=5171.1.2.3 Length=0.21614 LineCode=96
New Line.1307202 Bus1=5173.1.2.3 Bus2=5171.1.2.3 Length=0.13156 LineCode=96
New Line.1307201 Bus1=5172.1.2.3 Bus2=5173.1.2.3 Length=0.24853 LineCode=96
New Line.11738464 Bus1=5170.1.2.3 Bus2=5172.1.2.3 Length=0.26212 LineCode=96
New Line.1307203 Bus1=5170.1.2.3 Bus2=5174.1.2.3 Length=0.21645 LineCode=96
New Line.1307200 Bus1=5174.1.2.3 Bus2=5175.1.2.3 Length=0.1412 LineCode=96
New Line.1307199 Bus1=5175.1.2.3 Bus2=5181.1.2.3 Length=0.20114 LineCode=96
New Line.1307379 Bus1=5072.1.2.3 Bus2=5181.1.2.3 Length=0.15677 LineCode=80
New Line.1307196 Bus1=5180.1.2.3 Bus2=5181.1.2.3 Length=0.02478 LineCode=74
New Line.1307378 Bus1=5072.1.2.3 Bus2=5177.1.2.3 Length=0.14713 LineCode=80
New Line.1307198 Bus1=5177.1.2.3 Bus2=5176.1.2.3 Length=0.15021 LineCode=80
New Line.1307204 Bus1=5168.1.2.3 Bus2=5169.1.2.3 Length=0.00361 LineCode=74
New Line.1307377 Bus1=5179.1.2.3 Bus2=5176.1.2.3 Length=0.13127 LineCode=80
New Line.1307197 Bus1=5179.1.2.3 Bus2=5178.1.2.3 Length=0.04543 LineCode=80
New Line.1307273 Bus1=5178.1.2.3 Bus2=5254.1.2.3 Length=0.22192 LineCode=74
New Line.1307113 Bus1=5254.1.2.3 Bus2=5256.1.2.3 Length=0.13193 LineCode=74
New Line.1307112 Bus1=5256.1.2.3 Bus2=5255.1.2.3 Length=0.09595 LineCode=74
New Line.1307271 Bus1=5102.1.2.3 Bus2=5255.1.2.3 Length=0.14669 LineCode=74
New Line.1307272 Bus1=5257.1.2.3 Bus2=5101.1.2.3 Length=0.11712 LineCode=74
New Line.1307269 Bus1=5102.1.2.3 Bus2=5103.1.2.3 Length=0.16692 LineCode=74
New Line.1307111 Bus1=5258.1.2.3 Bus2=5257.1.2.3 Length=0.09417 LineCode=74
New Line.1307268 Bus1=5103.1.2.3 Bus2=5104.1.2.3 Length=0.07718 LineCode=74
New Line.1307110 Bus1=5258.1.2.3 Bus2=5260.1.2.3 Length=0.06089 LineCode=74
New Line.1307267 Bus1=5104.1.2.3 Bus2=5107.1.2.3 Length=0.12596 LineCode=74
New Line.1307109 Bus1=5260.1.2.3 Bus2=5261.1.2.3 Length=0.04368 LineCode=74
New Line.1307108 Bus1=5259.1.2.3 Bus2=5260.1.2.3 Length=0.00282 LineCode=74
New Line.1307264 Bus1=5107.1.2.3 Bus2=5108.1.2.3 Length=0.07033 LineCode=74
New Line.1307266 Bus1=5105.1.2.3 Bus2=5106.1.2.3 Length=0.00299 LineCode=74
New Line.1307263 Bus1=5108.1.2.3 Bus2=5109.1.2.3 Length=0.12805 LineCode=74
New Line.1307106 Bus1=5262.1 Bus2=5263.1 Length=0.12227 LineCode=105
New Line.1307262 Bus1=5109.1.2.3 Bus2=5110.1.2.3 Length=0.2112 LineCode=74
New Line.1307105 Bus1=5264.1 Bus2=5263.1 Length=0.2366 LineCode=105
New Line.1307261 Bus1=5110.1.2.3 Bus2=5111.1.2.3 Length=0.05149 LineCode=74
New Line.1307104 Bus1=5264.1 Bus2=5266.1 Length=0.01977 LineCode=105
New Line.1307260 Bus1=5112.1.2.3 Bus2=5111.1.2.3 Length=0.14742 LineCode=74
New Line.1307103 Bus1=5265.1 Bus2=5266.1 Length=0.00318 LineCode=105
New Line.1307259 Bus1=5112.1.2.3 Bus2=5115.1.2.3 Length=0.16832 LineCode=74
New Line.1307257 Bus1=5115.1.2.3 Bus2=5268.1.2.3 Length=0.13367 LineCode=74
New Line.1307256 Bus1=5114.1.2.3 Bus2=5115.1.2.3 Length=0.0406 LineCode=74
New Line.1307102 Bus1=5267.1.2.3 Bus2=5268.1.2.3 Length=0.18528 LineCode=74
New Line.1307258 Bus1=5113.1.2.3 Bus2=5114.1.2.3 Length=0.00361 LineCode=74
New Line.1307255 Bus1=5267.1.2.3 Bus2=5116.1.2.3 Length=0.07722 LineCode=74
New Line.1307254 Bus1=5117.1.2.3 Bus2=5116.1.2.3 Length=0.10011 LineCode=74
New Line.1307253 Bus1=5117.1.2.3 Bus2=5119.1.2.3 Length=0.26955 LineCode=74
New Line.3696526 Bus1=4204.1.2.3 Bus2=5119.1.2.3 Length=0.02532 LineCode=74
New Line.1307252 Bus1=5118.1.2.3 Bus2=5119.1.2.3 Length=0.1842 LineCode=74
New Line.1307275 Bus1=5100.1.2.3 Bus2=5118.1.2.3 Length=0.09297 LineCode=74
New Line.1307274 Bus1=5100.1.2.3 Bus2=5121.1.2.3 Length=0.09769 LineCode=74
New Line.3696642 Bus1=4200.1.3 Bus2=4201.1.3 Length=0.06088 LineCode=93
New Line.1307247 Bus1=5121.1.2.3 Bus2=5122.1.2.3 Length=0.1 LineCode=74
New Line.3696662 Bus1=4199.1.3 Bus2=4205.1.3 Length=0.0233 LineCode=93
New Line.1307246 Bus1=5132.1.2.3 Bus2=5122.1.2.3 Length=0.44285 LineCode=74
New Line.3696521 Bus1=4206.1.3 Bus2=4208.1.3 Length=0.03347 LineCode=93
New Line.1307226 Bus1=5132.1.2.3 Bus2=5134.1.2.3 Length=0.06715 LineCode=74
New Line.3696520 Bus1=4207.1.3 Bus2=4208.1.3 Length=0.05088 LineCode=93
New Line.1307225 Bus1=5134.1.2.3 Bus2=5133.1.2.3 Length=0.15321 LineCode=74
New Line.3696528 Bus1=4207.1.3 Bus2=4203.1.3 Length=0.12058 LineCode=93
New Line.1307245 Bus1=5123.1.2.3 Bus2=5133.1.2.3 Length=0.41168 LineCode=74
New Line.3696527 Bus1=4203.1.3 Bus2=4202.1.3 Length=0.04474 LineCode=93
New Line.1308327 Bus1=4280.1.2.3 Bus2=5123.1.2.3 Length=0.34471 LineCode=74
New Line.11730991 Bus1=4280.1.2.3 Bus2=5138.1.2.3 Length=0.32688 LineCode=74
New Line.1307222 Bus1=5137.1.2.3 Bus2=5138.1.2.3 Length=0.17859 LineCode=74
New Line.1307224 Bus1=5135.1.2.3 Bus2=5136.1.2.3 Length=0.04392 LineCode=74
New Line.1307244 Bus1=5124.1.2.3 Bus2=5137.1.2.3 Length=0.25845 LineCode=74
New Line.1307243 Bus1=5125.1 Bus2=5137.1 Length=0.05283 LineCode=105
New Line.1307249 Bus1=5120.1.2.3 Bus2=5135.1.2.3 Length=0.00317 LineCode=74
New Line.11752552 Bus1=5141.1.2.3 Bus2=5124.1.2.3 Length=0.21656 LineCode=74
New Line.1307220 Bus1=5141.1.2.3 Bus2=5162.1.2.3 Length=0.14707 LineCode=74
New Line.1307221 Bus1=5139.1 Bus2=5140.1 Length=0.00301 LineCode=105
New Line.1307210 Bus1=5160.1.2.3 Bus2=5162.1.2.3 Length=0.14505 LineCode=74
New Line.1307209 Bus1=5162.1.2.3 Bus2=5161.1.2.3 Length=0.16344 LineCode=74
New Line.1307241 Bus1=5160.1.2.3 Bus2=5145.1.2.3 Length=0.18687 LineCode=74
New Line.1307852 Bus1=5088.1.2.3 Bus2=5161.1.2.3 Length=0.08483 LineCode=74
New Line.1307219 Bus1=5142.1.2.3 Bus2=5143.1.2.3 Length=0.17001 LineCode=74
New Line.1307218 Bus1=5144.1.2.3 Bus2=5145.1.2.3 Length=0.00317 LineCode=74
New Line.1307231 Bus1=5128.1.2.3 Bus2=5129.1.2.3 Length=0.04069 LineCode=74
New Line.1307330 Bus1=5087.1.2.3 Bus2=5088.1.2.3 Length=0.04933 LineCode=74
New Line.1307239 Bus1=5147.1.2.3 Bus2=5142.1.2.3 Length=0.09556 LineCode=74
New Line.1307230 Bus1=5129.1.2.3 Bus2=5159.1.2.3 Length=0.06807 LineCode=74
New Line.10920256 Bus1=5087.1.2.3 Bus2=6047.1.2.3 Length=0.11583 LineCode=74
New Line.1307217 Bus1=5146.1.2.3 Bus2=5147.1.2.3 Length=0.17084 LineCode=74
New Line.1307211 Bus1=5158.1.2.3 Bus2=5159.1.2.3 Length=0.087 LineCode=74
New Line.1307336 Bus1=6047.1.2 Bus2=5084.1.2 Length=0.06932 LineCode=83
New Line.1307328 Bus1=5090.1.2.3 Bus2=6047.1.2.3 Length=0.05695 LineCode=74
New Line.1307238 Bus1=5146.1.2.3 Bus2=5149.1.2.3 Length=0.29293 LineCode=74
New Line.1307229 Bus1=5158.1.2.3 Bus2=5164.1.2.3 Length=0.08248 LineCode=74
New Line.1306557 Bus1=5804.1.2.3 Bus2=6046.1.2.3 Length=0.05482 LineCode=96
New Line.1307329 Bus1=5090.1.2.3 Bus2=5089.1.2.3 Length=0.00316 LineCode=74
New Line.1307216 Bus1=5148.1.2.3 Bus2=5149.1.2.3 Length=0.08438 LineCode=74
New Line.1307208 Bus1=5164.1.2.3 Bus2=5163.1.2.3 Length=0.07957 LineCode=74
New Line.1307334 Bus1=6045.1.2 Bus2=5085.1.2 Length=0.07931 LineCode=83
New Line.1307237 Bus1=5148.1.2.3 Bus2=5151.1.2.3 Length=0.09431 LineCode=74
New Line.1307228 Bus1=5131.1.2.3 Bus2=5163.1.2.3 Length=0.07244 LineCode=74
New Line.1306555 Bus1=5806.1.2.3 Bus2=5805.1.2.3 Length=0.05819 LineCode=96
New Line.1305997 Bus1=6044.1.2 Bus2=6045.1.2 Length=0.14337 LineCode=83
New Line.1307215 Bus1=5150.1.2.3 Bus2=5151.1.2.3 Length=0.15801 LineCode=74
New Line.1307227 Bus1=5130.1.2.3 Bus2=5131.1.2.3 Length=0.00317 LineCode=74
New Line.1306554 Bus1=5807.1.2.3 Bus2=5806.1.2.3 Length=0.29533 LineCode=96
New Line.1307333 Bus1=6043.1.2 Bus2=6044.1.2 Length=0.12581 LineCode=83
New Line.1307236 Bus1=5150.1.2.3 Bus2=5153.1.2.3 Length=0.08342 LineCode=74
New Line.1306553 Bus1=5807.1.2.3 Bus2=5808.1.2.3 Length=0.17827 LineCode=96
New Line.1305998 Bus1=6042.1.2 Bus2=6043.1.2 Length=0.19715 LineCode=83
New Line.1307214 Bus1=5153.1.2.3 Bus2=5152.1.2.3 Length=0.14717 LineCode=74
New Line.1306552 Bus1=5808.1.2.3 Bus2=5844.1.2.3 Length=0.06445 LineCode=96
New Line.1307332 Bus1=5086.1.2 Bus2=6042.1.2 Length=0.09208 LineCode=83
New Line.1307235 Bus1=5127.1.2.3 Bus2=5152.1.2.3 Length=0.03647 LineCode=74
New Line.1306520 Bus1=5843.1.2.3 Bus2=5844.1.2.3 Length=0.34013 LineCode=100
New Line.1307331 Bus1=5086.1.2 Bus2=6041.1.2 Length=0.02689 LineCode=83
New Line.1307234 Bus1=5127.1.2.3 Bus2=5126.1.2.3 Length=0.00361 LineCode=74
New Line.1306531 Bus1=5831.1.2.3 Bus2=5843.1.2.3 Length=0.22681 LineCode=74
New Line.1305999 Bus1=6040.1.2 Bus2=6041.1.2 Length=0.00315 LineCode=83
New Line.1307213 Bus1=5154.1.2 Bus2=5155.1.2 Length=0.435 LineCode=83
New Line.1306530 Bus1=5831.1.2.3 Bus2=5832.1.2.3 Length=0.09408 LineCode=96
New Line.1307232 Bus1=5154.1.2 Bus2=5157.1.2 Length=0.04417 LineCode=83
New Line.1306529 Bus1=5832.1.2.3 Bus2=5835.1.2.3 Length=0.16103 LineCode=96
New Line.1307212 Bus1=5156.1.2 Bus2=5157.1.2 Length=0.00881 LineCode=83
New Line.1306528 Bus1=5833.1.2.3 Bus2=5835.1.2.3 Length=0.01699 LineCode=74
New Line.1306527 Bus1=5835.1.2.3 Bus2=5845.1.2.3 Length=0.1609 LineCode=96
New Line.3623469 Bus1=5834.1.2.3 Bus2=5840.1.2.3 Length=0.03767 LineCode=74
New Line.1306519 Bus1=5845.1.2.3 Bus2=5846.1.2.3 Length=0.10071 LineCode=96
New Line.3623471 Bus1=4213.1.2.3 Bus2=4214.1.2.3 Length=0.00525 LineCode=74
New Line.1306522 Bus1=5839.1.2.3 Bus2=5840.1.2.3 Length=0.00318 LineCode=74
New Line.1306550 Bus1=5809.1.2.3 Bus2=5810.1.2.3 Length=0.00317 LineCode=74
New Line.1306518 Bus1=5846.1.2.3 Bus2=5848.1.2.3 Length=0.11193 LineCode=96
New Line.1306681 Bus1=5811.1.2.3 Bus2=5848.1.2.3 Length=0.18056 LineCode=96
New Line.1306525 Bus1=5847.1.2.3 Bus2=5836.1.2.3 Length=0.00301 LineCode=74
New Line.1306524 Bus1=5838.1.2.3 Bus2=5847.1.2.3 Length=0.04548 LineCode=74
New Line.1306549 Bus1=5811.1.2.3 Bus2=6021.1.2.3 Length=0.11247 LineCode=74
New Line.1306107 Bus1=6021.1.2.3 Bus2=6236.1.2.3 Length=0.1731 LineCode=80
New Line.1306680 Bus1=5519.1.2.3 Bus2=5837.1.2.3 Length=0.238 LineCode=74
New Line.3976224 Bus1=4196.1.2 Bus2=5812.1.2 Length=0.03735 LineCode=83
New Line.1306678 Bus1=5812.1.2.3 Bus2=5842.1.2.3 Length=0.20625 LineCode=74
New Line.1306108 Bus1=6020.1.2.3 Bus2=6236.1.2.3 Length=0.09302 LineCode=80
New Line.1306675 Bus1=5518.1.2.3 Bus2=5519.1.2.3 Length=0.06808 LineCode=74
New Line.3976223 Bus1=4195.1.2 Bus2=4196.1.2 Length=0.04463 LineCode=83
New Line.1306521 Bus1=5841.1.2.3 Bus2=5842.1.2.3 Length=0.06367 LineCode=74
New Line.1306176 Bus1=6221.1.2 Bus2=6235.1.2 Length=0.06056 LineCode=83
New Line.1306109 Bus1=6019.1.2.3 Bus2=6020.1.2.3 Length=0.12197 LineCode=80
New Line.1306679 Bus1=5517.1.2.3 Bus2=5518.1.2.3 Length=0.00315 LineCode=74
New Line.1306547 Bus1=5841.1.2.3 Bus2=5813.1.2.3 Length=0.04923 LineCode=74
New Line.1306177 Bus1=6221.1.2 Bus2=6220.1.2 Length=0.00302 LineCode=83
New Line.1306110 Bus1=6019.1.2.3 Bus2=6018.1.2.3 Length=0.12388 LineCode=80
New Line.1306546 Bus1=5813.1.2.3 Bus2=5814.1.2.3 Length=0.2589 LineCode=74
New Line.1306111 Bus1=6017.1.2.3 Bus2=6018.1.2.3 Length=0.13606 LineCode=80
New Line.1306545 Bus1=5814.1.2.3 Bus2=5815.1.2.3 Length=0.06722 LineCode=74
New Line.1306112 Bus1=6016.1.2.3 Bus2=6017.1.2.3 Length=0.10704 LineCode=80
New Line.1306544 Bus1=5815.1.2.3 Bus2=5818.1.2.3 Length=0.08174 LineCode=74
New Line.1306141 Bus1=6009.1.2.3 Bus2=6016.1.2.3 Length=0.10982 LineCode=80
New Line.1306542 Bus1=5817.1.2.3 Bus2=5816.1.2.3 Length=0.00301 LineCode=74
New Line.1306541 Bus1=5820.1.2.3 Bus2=5818.1.2.3 Length=0.09418 LineCode=74
New Line.1306121 Bus1=6009.1.2.3 Bus2=6267.1.2.3 Length=0.19801 LineCode=80
New Line.1306539 Bus1=5819.1.2.3 Bus2=5820.1.2.3 Length=0.25821 LineCode=74
New Line.1306118 Bus1=6010.1.2.3 Bus2=6015.1.2.3 Length=0.06012 LineCode=74
New Line.1306145 Bus1=6267.1.2.3 Bus2=6266.1.2.3 Length=0.10207 LineCode=74
New Line.1306538 Bus1=5821.1.2.3 Bus2=5822.1.2.3 Length=0.00317 LineCode=74
New Line.3976264 Bus1=4194.1.2.3 Bus2=5819.1.2.3 Length=0.03566 LineCode=74
New Line.1306159 Bus1=6245.1.2 Bus2=6246.1.2 Length=0.06381 LineCode=83
New Line.1306114 Bus1=6013.1.2.3 Bus2=6015.1.2.3 Length=0.1178 LineCode=74
New Line.1306113 Bus1=6014.1.2.3 Bus2=6015.1.2.3 Length=0.00318 LineCode=74
New Line.1306147 Bus1=6264.1.2.3 Bus2=6265.1.2.3 Length=0.04712 LineCode=74
New Line.1306124 Bus1=6239.1.2.3 Bus2=6266.1.2.3 Length=0.19832 LineCode=74
New Line.3976266 Bus1=4194.1.2.3 Bus2=5823.1.2.3 Length=0.0609 LineCode=74
New Line.1306160 Bus1=6244.1.2 Bus2=6245.1.2 Length=0.07365 LineCode=83
New Line.1306122 Bus1=6264.1.2.3 Bus2=6008.1.2.3 Length=0.00283 LineCode=74
New Line.1306148 Bus1=6262.1.2.3 Bus2=6263.1.2.3 Length=0.14825 LineCode=74
New Line.1306164 Bus1=6238.1.2.3 Bus2=6239.1.2.3 Length=0.19136 LineCode=80
New Line.1306628 Bus1=5560.1.2.3 Bus2=5823.1.2.3 Length=0.12913 LineCode=74
New Line.1306161 Bus1=6244.1.2 Bus2=6243.1.2 Length=0.00283 LineCode=83
New Line.1306115 Bus1=6012.1.2.3 Bus2=6271.1.2.3 Length=0.13443 LineCode=74
New Line.1306149 Bus1=6261.1.2.3 Bus2=6262.1.2.3 Length=0.05142 LineCode=74
New Line.1306125 Bus1=6238.1.2.3 Bus2=6242.1.2.3 Length=0.05892 LineCode=80
New Line.1306536 Bus1=5824.1.2.3 Bus2=5826.1.2.3 Length=0.1522 LineCode=74
New Line.1306639 Bus1=5560.1.2.3 Bus2=5562.1.2.3 Length=0.08261 LineCode=74
New Line.1306143 Bus1=6270.1.2.3 Bus2=6271.1.2.3 Length=0.19329 LineCode=74
New Line.1306150 Bus1=6260.1.2.3 Bus2=6261.1.2.3 Length=0.00317 LineCode=74
New Line.1306162 Bus1=6241.1.2.3 Bus2=6242.1.2.3 Length=0.11457 LineCode=80
New Line.1306535 Bus1=5825.1.2.3 Bus2=5826.1.2.3 Length=0.06008 LineCode=74
New Line.1306626 Bus1=5561.1.2.3 Bus2=5562.1.2.3 Length=0.14812 LineCode=74
New Line.1306116 Bus1=6011.1.2.3 Bus2=6270.1.2.3 Length=0.14601 LineCode=74
New Line.1306126 Bus1=6241.1.2.3 Bus2=6282.1.2.3 Length=0.08249 LineCode=80
New Line.1306677 Bus1=5825.1.2.3 Bus2=5521.1.2.3 Length=0.15987 LineCode=74
New Line.1306625 Bus1=5564.1.2.3 Bus2=5563.1.2.3 Length=0.00317 LineCode=74
New Line.1306637 Bus1=5556.1.2.3 Bus2=5561.1.2.3 Length=0.19337 LineCode=74
New Line.1306117 Bus1=6011.1.2.3 Bus2=6269.1.2.3 Length=0.0252 LineCode=74
New Line.11476792 Bus1=6281.1.2.3 Bus2=6282.1.2.3 Length=0.02345 LineCode=96
New Line.1306673 Bus1=5520.1.2.3 Bus2=5521.1.2.3 Length=0.14415 LineCode=74
New Line.1306624 Bus1=5565.1.2.3 Bus2=5566.1.2.3 Length=0.00317 LineCode=74
New Line.1306636 Bus1=5556.1.2.3 Bus2=5568.1.2.3 Length=0.06552 LineCode=74
New Line.1306144 Bus1=6269.1.2.3 Bus2=6268.1.2.3 Length=0.02757 LineCode=74
New Line.1306128 Bus1=6281.1.2.3 Bus2=6355.1.2.3 Length=0.04974 LineCode=80
New Line.1306676 Bus1=5523.1.2.3 Bus2=5520.1.2.3 Length=0.19063 LineCode=74
New Line.1306623 Bus1=5567.1.2.3 Bus2=5568.1.2.3 Length=0.09499 LineCode=74
New Line.1308329 Bus1=4279.1.2.3 Bus2=6268.1.2.3 Length=0.00415 LineCode=74
New Line.1306127 Bus1=6006.1.2.3 Bus2=6007.1.2.3 Length=0.00317 LineCode=74
New Line.10962661 Bus1=6354.1.2.3 Bus2=6355.1.2.3 Length=0.11038 LineCode=80
New Line.1306672 Bus1=5522.1.2.3 Bus2=5523.1.2.3 Length=0.12836 LineCode=74
New Line.1306635 Bus1=5567.1.2.3 Bus2=5737.1.2.3 Length=0.07539 LineCode=74
New Line.10962659 Bus1=6352.1.2 Bus2=6353.1.2 Length=0.03068 LineCode=83
New Line.1306151 Bus1=6354.1.2.3 Bus2=6259.1.2.3 Length=0.15537 LineCode=80
New Line.1306674 Bus1=5522.1.2.3 Bus2=5828.1.2.3 Length=0.13684 LineCode=74
New Line.1306622 Bus1=5736.1.2.3 Bus2=5737.1.2.3 Length=0.10446 LineCode=74
New Line.11476791 Bus1=6351.1.2 Bus2=6352.1.2 Length=0.07903 LineCode=83
New Line.1306130 Bus1=6005.1.2.3 Bus2=6259.1.2.3 Length=0.12991 LineCode=80
New Line.1306534 Bus1=5828.1.2.3 Bus2=5827.1.2.3 Length=0.11164 LineCode=74
New Line.1306533 Bus1=5828.1.2.3 Bus2=5830.1.2.3 Length=0.04082 LineCode=74
New Line.1306633 Bus1=5736.1.2.3 Bus2=5557.1.2.3 Length=0.09914 LineCode=74
New Line.10962658 Bus1=6350.1.2 Bus2=6351.1.2 Length=0.16074 LineCode=83
New Line.1306131 Bus1=6004.1.2.3 Bus2=6005.1.2.3 Length=0.139 LineCode=80
New Line.1306670 Bus1=5528.1.2.3 Bus2=5827.1.2.3 Length=0.11364 LineCode=74
New Line.1306669 Bus1=5524.1.2.3 Bus2=5827.1.2.3 Length=0.06491 LineCode=74
New Line.1306532 Bus1=5829.1.2.3 Bus2=5830.1.2.3 Length=0.00316 LineCode=74
New Line.1306621 Bus1=5738.1.2 Bus2=5740.1.2 Length=0.12384 LineCode=83
New Line.1306632 Bus1=5558.1.2.3 Bus2=5557.1.2.3 Length=0.16331 LineCode=74
New Line.10962657 Bus1=6349.1.2 Bus2=6350.1.2 Length=0.09084 LineCode=83
New Line.1306132 Bus1=6258.1.2.3 Bus2=6004.1.2.3 Length=0.13144 LineCode=80
New Line.1306664 Bus1=5533.1.2.3 Bus2=5528.1.2.3 Length=0.15194 LineCode=74
New Line.1306620 Bus1=5741.1.2 Bus2=5740.1.2 Length=0.03689 LineCode=83
New Line.1306619 Bus1=5739.1.2 Bus2=5740.1.2 Length=0.00316 LineCode=83
New Line.1306631 Bus1=5558.1.2.3 Bus2=5559.1.2.3 Length=0.16155 LineCode=74
New Line.10962654 Bus1=6346.1.2 Bus2=6349.1.2 Length=0.09078 LineCode=83
New Line.10962656 Bus1=6349.1.2 Bus2=6348.1.2 Length=0.06046 LineCode=83
New Line.1306152 Bus1=6257.1.2.3 Bus2=6258.1.2.3 Length=0.1475 LineCode=80
New Line.1306663 Bus1=5529.1.2.3 Bus2=5530.1.2.3 Length=0.08235 LineCode=74
New Line.1306661 Bus1=5533.1.2.3 Bus2=5534.1.2.3 Length=0.07702 LineCode=74
New Line.1306667 Bus1=5525.1.2.3 Bus2=5527.1.2.3 Length=0.04698 LineCode=74
New Line.1306629 Bus1=5559.1.2.3 Bus2=5751.1.2.3 Length=0.1545 LineCode=74
New Line.10962653 Bus1=6345.1.2 Bus2=6346.1.2 Length=0.13961 LineCode=83
New Line.10962655 Bus1=6347.1.2 Bus2=6348.1.2 Length=0.01529 LineCode=83
New Line.1306133 Bus1=6256.1.2.3 Bus2=6257.1.2.3 Length=0.17409 LineCode=80
New Line.1306671 Bus1=5532.1.2.3 Bus2=5529.1.2.3 Length=0.07454 LineCode=74
New Line.1306660 Bus1=5534.1.2.3 Bus2=5535.1.2.3 Length=0.09923 LineCode=74
New Line.1306666 Bus1=5527.1.2.3 Bus2=5526.1.2.3 Length=0.00315 LineCode=74
New Line.1306617 Bus1=5742.1.2 Bus2=5743.1.2 Length=0.16821 LineCode=83
New Line.1306612 Bus1=5748.1.2.3 Bus2=5749.1.2.3 Length=0.00302 LineCode=74
New Line.1306611 Bus1=5750.1.2.3 Bus2=5751.1.2.3 Length=0.10142 LineCode=74
New Line.10962652 Bus1=6344.1.2 Bus2=6345.1.2 Length=0.10658 LineCode=83
New Line.1306153 Bus1=6255.1.2.3 Bus2=6256.1.2.3 Length=0.11374 LineCode=80
New Line.1306662 Bus1=5531.1.2.3 Bus2=5532.1.2.3 Length=0.00283 LineCode=74
New Line.1306659 Bus1=5553.1.2.3 Bus2=5535.1.2.3 Length=0.14379 LineCode=74
New Line.1306616 Bus1=5743.1.2 Bus2=5744.1.2 Length=0.14995 LineCode=83
New Line.1306770 Bus1=5750.1.2.3 Bus2=5753.1.2.3 Length=0.1454 LineCode=74
New Line.10962651 Bus1=6344.1.2 Bus2=6343.1.2 Length=0.14775 LineCode=83
New Line.1306154 Bus1=6254.1.2.3 Bus2=6255.1.2.3 Length=0.08698 LineCode=80
New Line.1306641 Bus1=5553.1.2.3 Bus2=5555.1.2.3 Length=0.18778 LineCode=74
New Line.1306615 Bus1=5744.1.2 Bus2=5745.1.2 Length=0.27371 LineCode=83
New Line.1306610 Bus1=5752.1.2.3 Bus2=5753.1.2.3 Length=0.1216 LineCode=74
New Line.10962650 Bus1=6343.1.2 Bus2=6342.1.2 Length=0.11507 LineCode=83
New Line.1306134 Bus1=6237.1.2.3 Bus2=6254.1.2.3 Length=0.12416 LineCode=80
New Line.1306640 Bus1=5555.1.2.3 Bus2=5554.1.2.3 Length=0.19626 LineCode=74
New Line.1306769 Bus1=5438.1.2.3 Bus2=5752.1.2.3 Length=0.03893 LineCode=74
New Line.10962649 Bus1=6341.1.2 Bus2=6342.1.2 Length=0.08751 LineCode=83
New Line.1306165 Bus1=6237.1.2.3 Bus2=6253.1.2.3 Length=0.13786 LineCode=80
New Line.1306651 Bus1=5539.1.2.3 Bus2=5554.1.2.3 Length=0.23991 LineCode=74
New Line.1306613 Bus1=5746.1.2 Bus2=5747.1.2 Length=0.00315 LineCode=83
New Line.1307851 Bus1=5438.1.2.3 Bus2=5439.1.2.3 Length=0.12994 LineCode=74
New Line.10962648 Bus1=6340.1.2 Bus2=6341.1.2 Length=0.12514 LineCode=83
New Line.1306155 Bus1=6252.1.2.3 Bus2=6253.1.2.3 Length=0.18017 LineCode=80
New Line.1306658 Bus1=5536.1.2.3 Bus2=5539.1.2.3 Length=0.13123 LineCode=74
New Line.1306608 Bus1=5754.1.2.3 Bus2=5755.1.2.3 Length=0.18835 LineCode=74
New Line.1306766 Bus1=5440.1.2.3 Bus2=5439.1.2.3 Length=0.07718 LineCode=74
New Line.10962647 Bus1=6339.1.2 Bus2=6340.1.2 Length=0.04408 LineCode=83
New Line.1306136 Bus1=6003.1.2.3 Bus2=6252.1.2.3 Length=0.10522 LineCode=80
New Line.1306650 Bus1=5541.1.2.3 Bus2=5540.1.2.3 Length=0.11278 LineCode=74
New Line.1306657 Bus1=5536.1.2.3 Bus2=5538.1.2.3 Length=0.0241 LineCode=74
New Line.1306607 Bus1=5756.1.2.3 Bus2=5755.1.2.3 Length=0.20677 LineCode=74
New Line.1306765 Bus1=5440.1.2.3 Bus2=5441.1.2.3 Length=0.08933 LineCode=74
New Line.1306156 Bus1=6250.1.2.3 Bus2=6251.1.2.3 Length=0.00301 LineCode=74
New Line.1306137 Bus1=6002.1.2.3 Bus2=6003.1.2.3 Length=0.14651 LineCode=80
New Line.1306656 Bus1=5540.1.2.3 Bus2=5542.1.2.3 Length=0.14877 LineCode=74
New Line.1306654 Bus1=5538.1.2.3 Bus2=5547.1.2.3 Length=0.1105 LineCode=74
New Line.1306606 Bus1=5756.1.2.3 Bus2=5758.1.2.3 Length=0.03399 LineCode=74
New Line.1306138 Bus1=6002.1.2.3 Bus2=6001.1.2.3 Length=0.14036 LineCode=80
New Line.1306649 Bus1=5542.1.2.3 Bus2=5543.1.2.3 Length=0.1497 LineCode=74
New Line.1306646 Bus1=5546.1.2.3 Bus2=5547.1.2.3 Length=0.08849 LineCode=74
New Line.1306605 Bus1=5757.1.2.3 Bus2=5758.1.2.3 Length=0.00283 LineCode=74
New Line.10034763 Bus1=6335.1.2.3 Bus2=6336.1.2.3 Length=0.07885 LineCode=74
New Line.1306139 Bus1=6249.1.2.3 Bus2=6001.1.2.3 Length=0.05501 LineCode=80
New Line.1306648 Bus1=5543.1.2.3 Bus2=5545.1.2.3 Length=0.06027 LineCode=74
New Line.1306653 Bus1=5546.1.2.3 Bus2=5548.1.2.3 Length=0.20142 LineCode=74
New Line.10034769 Bus1=6333.1.2.3 Bus2=6334.1.2.3 Length=0.14279 LineCode=74
New Line.1306756 Bus1=5760.1.2.3 Bus2=6335.1.2.3 Length=0.12873 LineCode=74
New Line.1306157 Bus1=6248.1.2.3 Bus2=6249.1.2.3 Length=0.20285 LineCode=80
New Line.1306647 Bus1=5544.1.2.3 Bus2=5545.1.2.3 Length=0.0443 LineCode=74
New Line.1306645 Bus1=5548.1.2.3 Bus2=5550.1.2.3 Length=0.1506 LineCode=74
New Line.10034770 Bus1=6332.1.2.3 Bus2=6333.1.2.3 Length=0.06798 LineCode=74
New Line.1306762 Bus1=5442.1.2 Bus2=5443.1.2 Length=0.00315 LineCode=83
New Line.1306604 Bus1=5759.1.2.3 Bus2=5760.1.2.3 Length=0.11819 LineCode=74
New Line.1306158 Bus1=6247.1.2.3 Bus2=6248.1.2.3 Length=0.08969 LineCode=80
New Line.1306655 Bus1=5537.1.2.3 Bus2=5544.1.2.3 Length=0.00301 LineCode=74
New Line.1306643 Bus1=5549.1.2.3 Bus2=5550.1.2.3 Length=0.18317 LineCode=74
New Line.10034771 Bus1=6331.1.2.3 Bus2=6332.1.2.3 Length=0.1133 LineCode=74
New Line.1306754 Bus1=5764.1.2.3 Bus2=5759.1.2.3 Length=0.10846 LineCode=74
New Line.1306163 Bus1=6240.1.2.3 Bus2=6247.1.2.3 Length=0.09318 LineCode=80
New Line.1306644 Bus1=5549.1.2.3 Bus2=5552.1.2.3 Length=0.07775 LineCode=74
New Line.10034772 Bus1=6331.1.2.3 Bus2=6330.1.2.3 Length=0.08501 LineCode=74
New Line.1306601 Bus1=5764.1.2.3 Bus2=5763.1.2.3 Length=0.213 LineCode=74
New Line.1306514 Bus1=5858.1.2.3 Bus2=6240.1.2.3 Length=0.15404 LineCode=96
New Line.1306140 Bus1=6234.1.2.3 Bus2=6240.1.2.3 Length=0.07812 LineCode=80
New Line.3626025 Bus1=4211.1.2.3 Bus2=4212.1.2.3 Length=0.12661 LineCode=74
New Line.1306642 Bus1=5551.1.2.3 Bus2=5552.1.2.3 Length=0.00363 LineCode=74
New Line.10034773 Bus1=6330.1.2.3 Bus2=6329.1.2.3 Length=0.04253 LineCode=74
New Line.1306603 Bus1=5761.1.2.3 Bus2=5762.1.2.3 Length=0.00317 LineCode=74
New Line.1306753 Bus1=5765.1.2.3 Bus2=5763.1.2.3 Length=0.03823 LineCode=80
New Line.1306500 Bus1=5858.1.2.3 Bus2=5860.1.2.3 Length=0.1512 LineCode=80
New Line.3626026 Bus1=4211.1.2.3 Bus2=4210.1.2.3 Length=0.02579 LineCode=74
New Line.10034775 Bus1=6328.1.2.3 Bus2=6329.1.2.3 Length=0.02381 LineCode=74
New Line.4051414 Bus1=4188.1.2 Bus2=4190.1.2 Length=0.17513 LineCode=83
New Line.1306600 Bus1=5767.1.2.3 Bus2=5765.1.2.3 Length=0.12635 LineCode=74
New Line.1306499 Bus1=5859.1.2.3 Bus2=5860.1.2.3 Length=0.19048 LineCode=80
New Line.1306168 Bus1=6232.1.2.3 Bus2=6233.1.2.3 Length=0.11649 LineCode=80
New Line.3626027 Bus1=4209.1.2.3 Bus2=4210.1.2.3 Length=0.00624 LineCode=74
New Line.10034778 Bus1=6327.1.2.3 Bus2=6328.1.2.3 Length=0.03548 LineCode=74
New Line.4051412 Bus1=4189.1.2 Bus2=4190.1.2 Length=0.09423 LineCode=83
New Line.1306599 Bus1=5766.1.2.3 Bus2=5767.1.2.3 Length=0.08445 LineCode=74
New Line.1306501 Bus1=5862.1.2.3 Bus2=5859.1.2.3 Length=0.16875 LineCode=80
New Line.1306178 Bus1=6232.1.2.3 Bus2=6231.1.2.3 Length=0.12662 LineCode=80
New Line.10034780 Bus1=6326.1.2.3 Bus2=6327.1.2.3 Length=0.01941 LineCode=74
New Line.4051413 Bus1=4189.1.2 Bus2=4193.1.2 Length=0.23457 LineCode=83
New Line.1306752 Bus1=5444.1.2 Bus2=5445.1.2 Length=0.00316 LineCode=83
New Line.1306751 Bus1=5475.1.2.3 Bus2=5766.1.2.3 Length=0.39074 LineCode=74
New Line.1306498 Bus1=5861.1.2.3 Bus2=5862.1.2.3 Length=0.18856 LineCode=80
New Line.3849661 Bus1=4198.1.2 Bus2=6231.1.2 Length=0.00793 LineCode=83
New Line.1306169 Bus1=6230.1.2.3 Bus2=6231.1.2.3 Length=0.13055 LineCode=80
New Line.10034781 Bus1=6325.1.2.3 Bus2=6326.1.2.3 Length=0.0299 LineCode=74
New Line.4051410 Bus1=4193.1.2 Bus2=4192.1.2 Length=0.02835 LineCode=83
New Line.1306776 Bus1=5447.1.2.3 Bus2=5475.1.2.3 Length=0.27628 LineCode=74
New Line.1306513 Bus1=5861.1.2.3 Bus2=5850.1.2.3 Length=0.14379 LineCode=80
New Line.1306179 Bus1=6229.1.2.3 Bus2=6230.1.2.3 Length=0.08611 LineCode=80
New Line.4051411 Bus1=4192.1.2 Bus2=4191.1.2 Length=0.02038 LineCode=83
New Line.1306726 Bus1=5474.1.2.3 Bus2=5473.1.2.3 Length=0.07091 LineCode=74
New Line.1306750 Bus1=5447.1.2.3 Bus2=5448.1.2.3 Length=0.03053 LineCode=74
New Line.1306749 Bus1=5446.1.2.3 Bus2=5447.1.2.3 Length=0.14168 LineCode=74
New Line.1306512 Bus1=5850.1.2.3 Bus2=5863.1.2.3 Length=0.12476 LineCode=80
New Line.1306170 Bus1=6228.1.2.3 Bus2=6229.1.2.3 Length=0.1336 LineCode=80
New Line.1306777 Bus1=5435.1.2.3 Bus2=5473.1.2.3 Length=0.00317 LineCode=74
New Line.1306748 Bus1=5449.1.2.3 Bus2=5448.1.2.3 Length=0.06081 LineCode=74
New Line.1306775 Bus1=5454.1.2.3 Bus2=5446.1.2.3 Length=0.07003 LineCode=74
New Line.1306497 Bus1=5865.1.2.3 Bus2=5863.1.2.3 Length=0.16709 LineCode=80
New Line.1306180 Bus1=6219.1.2.3 Bus2=6227.1.2.3 Length=0.05879 LineCode=80
New Line.1306172 Bus1=6228.1.2.3 Bus2=6226.1.2.3 Length=0.09631 LineCode=80
New Line.1306747 Bus1=5449.1.2.3 Bus2=5450.1.2.3 Length=0.14633 LineCode=74
New Line.1306744 Bus1=5453.1.2.3 Bus2=5454.1.2.3 Length=0.15792 LineCode=74
New Line.1306496 Bus1=5867.1.2.3 Bus2=5865.1.2.3 Length=0.08636 LineCode=74
New Line.1306181 Bus1=6218.1.2.3 Bus2=6219.1.2.3 Length=0.00283 LineCode=80
New Line.1306173 Bus1=6225.1.2.3 Bus2=6226.1.2.3 Length=0.10903 LineCode=80
New Line.1306746 Bus1=5450.1.2.3 Bus2=5452.1.2.3 Length=0.1332 LineCode=74
New Line.1306773 Bus1=5453.1.2.3 Bus2=5436.1.2.3 Length=0.23217 LineCode=74
New Line.1306511 Bus1=5852.1.2.3 Bus2=5864.1.2.3 Length=0.07379 LineCode=74
New Line.1306493 Bus1=5867.1.2.3 Bus2=5935.1.2.3 Length=0.14945 LineCode=80
New Line.1306174 Bus1=6224.1.2.3 Bus2=6225.1.2.3 Length=0.12033 LineCode=80
New Line.1306745 Bus1=5451.1.2.3 Bus2=5452.1.2.3 Length=0.03756 LineCode=74
New Line.1306743 Bus1=5455.1.2 Bus2=5456.1.2 Length=0.00283 LineCode=83
New Line.1306772 Bus1=5436.1.2.3 Bus2=5458.1.2.3 Length=0.42322 LineCode=74
New Line.1306510 Bus1=5851.1.2.3 Bus2=5852.1.2.3 Length=0.00318 LineCode=74
New Line.1306494 Bus1=5866.1.2.3 Bus2=5941.1.2.3 Length=0.28033 LineCode=74
New Line.1306380 Bus1=5935.1.2.3 Bus2=5936.1.2.3 Length=0.1043 LineCode=80