New Loadshape.976 npts=24 interval=1 !código carga: N30170
~ pmult=(0.98802314, 0.88500974, 0.8104921, 0.78461494, 0.75908136, 0.74241082, 0.76963988, 0.80480592, 0.86259746, 0.90485696, 0.92762774, 0.89857357, 0.98382699, 1.03174905, 0.97327997, 1.04404926, 1.08630275, 1.10348267, 1.1951947, 1.41969307, 1.31428488, 1.29648033, 1.28227391, 1.13164879)
~ qmult=(0.98802316, 0.88500959, 0.81049215, 0.784615, 0.75908133, 0.7424108, 0.76963983, 0.80480589, 0.8625975, 0.90485701, 0.92762786, 0.89857367, 0.98382709, 1.03174903, 0.97327998, 1.04404933, 1.08630273, 1.10348277, 1.19519469, 1.41969305, 1.3142847, 1.29648027, 1.28227375, 1.13164882)
New Loadshape.975 npts=24 interval=1 !código carga: W63160
~ pmult=(0.91061197, 0.84875113, 0.80381112, 0.78766553, 0.762474, 0.75873494, 0.73366054, 0.83016586, 0.96933321, 1.05835186, 1.08519892, 1.0983033, 1.09046589, 1.10393814, 1.05001096, 1.06889021, 1.08811532, 1.10938322, 1.17691257, 1.27263362, 1.1872564, 1.1257589, 1.10759088, 0.97198151)
~ qmult=(0.91061185, 0.84875123, 0.80381116, 0.78766555, 0.76247405, 0.75873494, 0.73366053, 0.83016588, 0.96933313, 1.05835196, 1.08519891, 1.09830334, 1.0904659, 1.10393815, 1.05001083, 1.06889027, 1.08811525, 1.10938318, 1.17691261, 1.27263381, 1.18725641, 1.12575878, 1.10759075, 0.97198149)
New Loadshape.974 npts=24 interval=1 !código carga: W74578
~ pmult=(0.98802316, 0.88500969, 0.81049214, 0.78461497, 0.75908131, 0.7424108, 0.76963989, 0.80480599, 0.86259736, 0.90485707, 0.92762777, 0.89857359, 0.98382705, 1.03174902, 0.97327993, 1.04404928, 1.08630265, 1.10348277, 1.19519479, 1.41969299, 1.31428484, 1.29648024, 1.28227391, 1.13164878)
~ qmult=(0.98802313, 0.88500967, 0.81049212, 0.78461505, 0.75908137, 0.74241082, 0.76963984, 0.80480592, 0.86259742, 0.90485706, 0.92762775, 0.89857361, 0.98382707, 1.03174916, 0.97328004, 1.04404929, 1.08630269, 1.10348274, 1.1951947, 1.41969302, 1.31428479, 1.29648019, 1.28227381, 1.13164872)
New Loadshape.973 npts=24 interval=1 !código carga: W74573
~ pmult=(0.98802319, 0.88500969, 0.81049212, 0.78461506, 0.75908133, 0.74241078, 0.76963985, 0.80480595, 0.86259745, 0.90485704, 0.92762778, 0.89857351, 0.98382705, 1.03174896, 0.97327998, 1.04404923, 1.08630279, 1.10348271, 1.19519474, 1.41969298, 1.31428486, 1.29648037, 1.2822738, 1.13164878)
~ qmult=(0.98802321, 0.88500967, 0.81049215, 0.78461499, 0.7590814, 0.74241078, 0.76963978, 0.80480596, 0.86259748, 0.90485707, 0.92762782, 0.89857364, 0.98382703, 1.03174912, 0.97327992, 1.04404925, 1.08630266, 1.10348277, 1.19519468, 1.4196931, 1.31428471, 1.29648025, 1.28227378, 1.13164876)
New Loadshape.971 npts=24 interval=1 !código carga: Y13237
~ pmult=(0.94796435, 0.85451418, 0.78886565, 0.76392367, 0.74042557, 0.72594897, 0.75497712, 0.79922162, 0.88609451, 0.95337759, 0.98910481, 0.96859569, 1.04002444, 1.0713225, 1.02151258, 1.08411884, 1.11272417, 1.12788045, 1.19527912, 1.37821392, 1.26854129, 1.23709305, 1.21416502, 1.07611091)
~ qmult=(0.94796417, 0.85451411, 0.78886556, 0.76392363, 0.74042557, 0.72594889, 0.75497721, 0.79922158, 0.88609447, 0.9533774, 0.98910502, 0.96859575, 1.04002438, 1.07132264, 1.02151245, 1.08411886, 1.11272423, 1.12788036, 1.19527904, 1.37821418, 1.26854143, 1.23709306, 1.21416511, 1.0761109)
New Loadshape.969 npts=24 interval=1 !código carga: Y21432
~ pmult=(0.831914, 0.81189008, 0.79701912, 0.79076667, 0.76592305, 0.77533043, 0.69708322, 0.85594725, 1.07784286, 1.21439804, 1.24538903, 1.3013523, 1.19887726, 1.17732709, 1.12801715, 1.09414412, 1.089958, 1.11538181, 1.15832658, 1.12313019, 1.05811682, 0.95220003, 0.93000448, 0.80966039)
~ qmult=(0.83191411, 0.8118901, 0.79701909, 0.79076672, 0.76592313, 0.77533041, 0.69708322, 0.85594721, 1.0778428, 1.21439811, 1.24538892, 1.3013524, 1.19887729, 1.17732708, 1.12801721, 1.094144, 1.08995797, 1.11538183, 1.15832662, 1.12313019, 1.0581168, 0.95219999, 0.93000441, 0.80966039)
New Loadshape.968 npts=24 interval=1 !código carga: N44684
~ pmult=(0.83191407, 0.8118901, 0.79701912, 0.79076674, 0.76592309, 0.77533041, 0.69708321, 0.85594729, 1.07784282, 1.21439803, 1.24538897, 1.30135234, 1.19887725, 1.17732699, 1.12801719, 1.09414413, 1.08995795, 1.11538184, 1.15832667, 1.12313019, 1.05811678, 0.95219997, 0.93000451, 0.80966035)
~ qmult=(0.83191407, 0.81189012, 0.7970191, 0.79076676, 0.76592315, 0.77533041, 0.69708325, 0.85594726, 1.0778428, 1.21439808, 1.24538887, 1.30135241, 1.19887731, 1.17732706, 1.12801718, 1.09414404, 1.089958, 1.11538185, 1.15832662, 1.12313016, 1.05811676, 0.95219996, 0.93000441, 0.80966038)
New Loadshape.967 npts=24 interval=1 !código carga: N44686
~ pmult=(0.83191408, 0.81189003, 0.79701912, 0.79076674, 0.76592306, 0.77533044, 0.6970832, 0.85594727, 1.07784285, 1.21439798, 1.24538898, 1.30135236, 1.19887726, 1.17732706, 1.1280172, 1.09414412, 1.08995791, 1.11538184, 1.15832661, 1.12313021, 1.05811681, 0.95220001, 0.93000447, 0.80966037)
~ qmult=(0.83191409, 0.8118901, 0.79701911, 0.79076677, 0.76592315, 0.77533038, 0.69708328, 0.85594724, 1.07784278, 1.21439809, 1.24538885, 1.30135239, 1.19887734, 1.1773271, 1.12801715, 1.09414399, 1.08995796, 1.11538185, 1.15832662, 1.12313021, 1.05811677, 0.95219995, 0.93000446, 0.80966036)
New Loadshape.961 npts=24 interval=1 !código carga: A52114
~ pmult=(0.84955542, 0.82015308, 0.79854166, 0.7900715, 0.7651499, 0.77161028, 0.70528259, 0.8501679, 1.05351878, 1.17941789, 1.20947989, 1.25583585, 1.17457523, 1.16087578, 1.11053091, 1.0884831, 1.0895449, 1.11403708, 1.16249299, 1.15664375, 1.08706535, 0.9911059, 0.96981314, 0.84604713)
~ qmult=(0.84955541, 0.82015307, 0.79854167, 0.79007152, 0.76514992, 0.77161025, 0.70528259, 0.85016796, 1.05351869, 1.17941801, 1.20947978, 1.2558358, 1.17457524, 1.16087589, 1.1105309, 1.08848295, 1.08954495, 1.11403726, 1.162493, 1.15664371, 1.08706536, 0.99110587, 0.9698131, 0.84604709)
New Loadshape.960 npts=24 interval=1 !código carga: A52107
~ pmult=(0.83191404, 0.81189002, 0.79701912, 0.79076674, 0.7659231, 0.77533046, 0.69708325, 0.85594729, 1.07784287, 1.21439802, 1.24538897, 1.30135242, 1.19887717, 1.17732704, 1.12801717, 1.09414413, 1.08995795, 1.11538179, 1.15832667, 1.1231302, 1.05811676, 0.95219997, 0.93000451, 0.80966036)
~ qmult=(0.83191406, 0.81189012, 0.79701913, 0.79076674, 0.76592312, 0.77533042, 0.69708323, 0.85594722, 1.07784274, 1.21439813, 1.24538888, 1.30135241, 1.19887734, 1.17732711, 1.12801713, 1.094144, 1.08995796, 1.11538185, 1.15832659, 1.12313022, 1.05811675, 0.95219996, 0.93000447, 0.8096604)
New Loadshape.959 npts=24 interval=1 !código carga: A52102
~ pmult=(0.83191406, 0.8118901, 0.79701913, 0.79076671, 0.7659231, 0.77533045, 0.69708321, 0.85594726, 1.07784284, 1.21439801, 1.24538904, 1.30135244, 1.19887718, 1.17732697, 1.12801716, 1.09414408, 1.08995794, 1.11538184, 1.15832668, 1.12313018, 1.0581168, 0.95219996, 0.9300045, 0.80966035)
~ qmult=(0.83191404, 0.81189011, 0.79701915, 0.79076673, 0.76592316, 0.77533043, 0.69708328, 0.85594721, 1.07784275, 1.21439812, 1.24538887, 1.3013524, 1.19887729, 1.17732704, 1.12801715, 1.09414402, 1.089958, 1.11538181, 1.15832663, 1.12313019, 1.05811678, 0.95220001, 0.93000443, 0.80966039)
New Loadshape.958 npts=24 interval=1 !código carga: A52118
~ pmult=(0.83191406, 0.81189009, 0.79701914, 0.7907667, 0.76592307, 0.77533044, 0.69708327, 0.85594723, 1.07784284, 1.21439803, 1.24538898, 1.30135232, 1.19887716, 1.17732702, 1.12801716, 1.09414413, 1.08995796, 1.11538184, 1.15832668, 1.12313023, 1.05811679, 0.95219999, 0.9300045, 0.80966038)
~ qmult=(0.83191409, 0.81189009, 0.79701915, 0.79076675, 0.7659231, 0.77533041, 0.69708324, 0.85594727, 1.07784275, 1.2143981, 1.24538886, 1.30135238, 1.19887734, 1.1773271, 1.12801716, 1.09414403, 1.08995794, 1.11538181, 1.15832664, 1.1231302, 1.05811677, 0.95220001, 0.93000441, 0.8096604)
New Loadshape.957 npts=24 interval=1 !código carga: A52120
~ pmult=(0.83191404, 0.81189006, 0.79701914, 0.79076669, 0.76592306, 0.77533042, 0.69708321, 0.85594728, 1.07784284, 1.21439809, 1.24538903, 1.3013524, 1.19887715, 1.17732703, 1.12801717, 1.09414413, 1.08995797, 1.1153818, 1.15832665, 1.1231302, 1.0581168, 0.9522, 0.93000444, 0.8096604)
~ qmult=(0.8319141, 0.81189015, 0.79701911, 0.79076677, 0.76592314, 0.77533042, 0.69708321, 0.85594722, 1.07784275, 1.21439808, 1.24538889, 1.30135244, 1.19887735, 1.17732705, 1.12801719, 1.09414401, 1.08995799, 1.11538184, 1.15832661, 1.12313015, 1.05811677, 0.95219994, 0.93000441, 0.80966041)
New Loadshape.956 npts=24 interval=1 !código carga: A52126
~ pmult=(0.83191405, 0.81189004, 0.79701912, 0.79076674, 0.76592306, 0.7753304, 0.69708324, 0.85594728, 1.07784288, 1.21439799, 1.24538898, 1.30135236, 1.19887725, 1.17732708, 1.12801721, 1.09414413, 1.08995798, 1.11538188, 1.15832657, 1.12313021, 1.05811677, 0.9522, 0.93000443, 0.80966036)
~ qmult=(0.8319141, 0.81189009, 0.7970191, 0.79076676, 0.76592315, 0.77533042, 0.69708323, 0.85594722, 1.07784277, 1.21439814, 1.24538893, 1.30135241, 1.19887727, 1.17732701, 1.12801713, 1.09414398, 1.08995794, 1.11538187, 1.15832665, 1.12313025, 1.05811679, 0.95219997, 0.93000442, 0.8096604)
New Loadshape.955 npts=24 interval=1 !código carga: A52121
~ pmult=(0.83191404, 0.8118901, 0.79701908, 0.79076669, 0.76592311, 0.77533042, 0.69708325, 0.85594724, 1.07784284, 1.21439804, 1.24538897, 1.30135241, 1.19887725, 1.17732704, 1.12801719, 1.09414406, 1.08995795, 1.11538186, 1.15832666, 1.12313019, 1.05811678, 0.95219998, 0.93000444, 0.8096604)
~ qmult=(0.83191406, 0.81189014, 0.79701912, 0.79076677, 0.76592311, 0.77533045, 0.69708326, 0.85594723, 1.07784274, 1.21439812, 1.24538884, 1.30135238, 1.19887734, 1.17732704, 1.12801715, 1.09414407, 1.08995794, 1.11538183, 1.15832664, 1.12313018, 1.05811676, 0.95220002, 0.93000439, 0.80966041)
New Loadshape.954 npts=24 interval=1 !código carga: A52221
~ pmult=(0.83191409, 0.81189008, 0.79701911, 0.79076673, 0.76592307, 0.77533043, 0.69708324, 0.85594728, 1.07784279, 1.21439802, 1.24538896, 1.30135233, 1.19887724, 1.177327, 1.12801719, 1.09414407, 1.089958, 1.11538187, 1.1583266, 1.12313023, 1.05811678, 0.95220002, 0.93000446, 0.8096604)
~ qmult=(0.83191409, 0.81189011, 0.7970191, 0.79076676, 0.76592316, 0.77533039, 0.69708321, 0.85594724, 1.07784273, 1.21439809, 1.2453889, 1.30135237, 1.19887726, 1.17732712, 1.12801717, 1.09414396, 1.08995798, 1.11538181, 1.15832666, 1.12313022, 1.0581168, 0.95219998, 0.93000446, 0.80966042)
New Loadshape.953 npts=24 interval=1 !código carga: A52218
~ pmult=(0.83191406, 0.81189007, 0.79701914, 0.79076673, 0.76592306, 0.77533044, 0.69708323, 0.85594724, 1.07784281, 1.21439802, 1.24538903, 1.30135244, 1.19887723, 1.17732709, 1.12801718, 1.09414406, 1.08995801, 1.11538186, 1.15832658, 1.12313017, 1.05811674, 0.95219995, 0.93000448, 0.80966039)
~ qmult=(0.83191406, 0.81189014, 0.79701913, 0.79076675, 0.76592313, 0.77533042, 0.69708326, 0.85594723, 1.07784279, 1.21439804, 1.24538884, 1.30135242, 1.19887737, 1.177327, 1.12801713, 1.09414404, 1.08995798, 1.11538189, 1.15832657, 1.12313015, 1.05811676, 0.95220002, 0.93000445, 0.80966041)
New Loadshape.952 npts=24 interval=1 !código carga: A52216
~ pmult=(0.83191407, 0.81189007, 0.79701913, 0.79076671, 0.76592314, 0.77533039, 0.69708325, 0.85594725, 1.07784276, 1.21439807, 1.24538895, 1.30135239, 1.19887719, 1.17732701, 1.12801725, 1.09414409, 1.08995795, 1.1153819, 1.15832666, 1.12313015, 1.05811682, 0.95219998, 0.93000446, 0.80966037)
~ qmult=(0.83191412, 0.81189013, 0.79701909, 0.7907668, 0.76592312, 0.7753304, 0.6970832, 0.85594727, 1.07784279, 1.21439815, 1.2453889, 1.30135239, 1.19887735, 1.17732704, 1.12801714, 1.09414397, 1.08995794, 1.11538184, 1.15832656, 1.12313018, 1.05811679, 0.95220001, 0.9300044, 0.80966042)
New Loadshape.950 npts=24 interval=1 !código carga: A52209
~ pmult=(0.92536223, 0.83730826, 0.77666341, 0.75224913, 0.72989933, 0.71666056, 0.74670416, 0.79607063, 0.89935201, 0.98075403, 1.0237916, 1.00810409, 1.07173257, 1.09365115, 1.04872684, 1.10672686, 1.1276322, 1.14164603, 1.19532693, 1.35481055, 1.2427318, 1.20358534, 1.17573587, 1.04477442)
~ qmult=(0.92536274, 0.83730768, 0.77666316, 0.75224844, 0.72989971, 0.71666012, 0.74670392, 0.79607073, 0.89935225, 0.98075407, 1.02379189, 1.00810415, 1.07173266, 1.0936512, 1.04872683, 1.10672702, 1.12763196, 1.14164616, 1.1953268, 1.35481, 1.24273183, 1.2035852, 1.17573624, 1.04477522)
New Loadshape.949 npts=24 interval=1 !código carga: A52207
~ pmult=(0.84826661, 0.77861746, 0.73504191, 0.71242723, 0.69399549, 0.68497848, 0.71848498, 0.78532317, 0.94457364, 1.07413415, 1.14210785, 1.14286551, 1.179888, 1.1698126, 1.14155291, 1.18384347, 1.17848141, 1.18860127, 1.1954894, 1.27498179, 1.15469564, 1.08929084, 1.04465734, 0.93788887)
~ qmult=(0.84826629, 0.77861748, 0.73504193, 0.71242721, 0.69399546, 0.68497847, 0.71848476, 0.78532367, 0.9445735, 1.07413448, 1.1421081, 1.14286572, 1.17988803, 1.16981264, 1.14155316, 1.18384351, 1.17848172, 1.18860108, 1.19548947, 1.2749813, 1.15469552, 1.08929091, 1.04465708, 0.93788848)
New Loadshape.948 npts=24 interval=1 !código carga: A52147
~ pmult=(0.83191406, 0.81189009, 0.7970191, 0.79076669, 0.76592305, 0.7753304, 0.69708324, 0.85594726, 1.07784283, 1.21439806, 1.24538898, 1.30135238, 1.19887722, 1.17732703, 1.12801721, 1.09414409, 1.08995799, 1.11538188, 1.15832663, 1.12313019, 1.0581168, 0.95220001, 0.93000444, 0.80966039)
~ qmult=(0.83191406, 0.81189012, 0.79701911, 0.79076675, 0.76592313, 0.77533041, 0.69708324, 0.85594727, 1.07784282, 1.21439806, 1.24538889, 1.3013524, 1.19887733, 1.1773271, 1.1280172, 1.09414403, 1.08995798, 1.11538182, 1.15832659, 1.1231302, 1.05811673, 0.9522, 0.93000441, 0.80966037)
New Loadshape.947 npts=24 interval=1 !código carga: A52149
~ pmult=(0.83191406, 0.81189006, 0.79701911, 0.79076669, 0.76592307, 0.77533042, 0.69708322, 0.85594724, 1.07784287, 1.21439805, 1.24538895, 1.3013524, 1.19887725, 1.17732706, 1.1280172, 1.09414412, 1.08995797, 1.1153818, 1.15832664, 1.12313022, 1.05811676, 0.95219999, 0.93000447, 0.8096604)
~ qmult=(0.83191408, 0.81189009, 0.79701912, 0.79076673, 0.76592311, 0.7753304, 0.69708324, 0.85594724, 1.07784275, 1.21439813, 1.24538882, 1.3013524, 1.19887731, 1.17732709, 1.12801716, 1.09414398, 1.089958, 1.11538189, 1.15832666, 1.1231302, 1.05811677, 0.9522, 0.93000446, 0.80966038)
New Loadshape.946 npts=24 interval=1 !código carga: A52144
~ pmult=(0.83191407, 0.81189007, 0.79701909, 0.79076673, 0.7659231, 0.7753304, 0.69708324, 0.85594725, 1.0778428, 1.21439803, 1.24538898, 1.3013524, 1.19887723, 1.17732699, 1.12801717, 1.09414414, 1.089958, 1.11538185, 1.15832663, 1.12313021, 1.05811675, 0.95220002, 0.93000448, 0.80966035)
~ qmult=(0.83191409, 0.81189014, 0.79701908, 0.79076673, 0.76592314, 0.77533044, 0.69708322, 0.85594726, 1.0778428, 1.21439809, 1.24538892, 1.3013524, 1.19887733, 1.1773271, 1.1280171, 1.09414399, 1.08995799, 1.1153818, 1.15832658, 1.12313017, 1.05811679, 0.95219998, 0.93000443, 0.80966042)
New Loadshape.944 npts=24 interval=1 !código carga: A52232
~ pmult=(0.83191402, 0.81189008, 0.79701912, 0.79076669, 0.76592308, 0.77533044, 0.69708322, 0.85594726, 1.07784287, 1.21439801, 1.24538903, 1.30135234, 1.19887725, 1.17732705, 1.12801719, 1.09414413, 1.08995796, 1.11538183, 1.15832662, 1.12313015, 1.05811676, 0.95219999, 0.93000452, 0.80966038)
~ qmult=(0.83191408, 0.81189011, 0.79701915, 0.79076678, 0.76592314, 0.7753304, 0.69708326, 0.85594722, 1.07784276, 1.21439814, 1.24538885, 1.30135242, 1.19887737, 1.17732707, 1.1280172, 1.09414399, 1.08995796, 1.1153818, 1.15832656, 1.12313017, 1.05811677, 0.9522, 0.93000445, 0.80966037)
New Loadshape.943 npts=24 interval=1 !código carga: A52229
~ pmult=(0.83191408, 0.81189006, 0.7970191, 0.79076673, 0.76592309, 0.77533043, 0.69708324, 0.85594724, 1.07784286, 1.21439802, 1.245389, 1.30135241, 1.19887723, 1.17732707, 1.12801721, 1.09414411, 1.08995797, 1.11538183, 1.15832658, 1.12313016, 1.05811675, 0.9522, 0.93000448, 0.80966036)
~ qmult=(0.83191404, 0.81189014, 0.79701907, 0.79076678, 0.76592313, 0.77533044, 0.69708321, 0.85594725, 1.07784277, 1.21439814, 1.24538891, 1.30135241, 1.19887735, 1.17732704, 1.12801717, 1.09414404, 1.08995793, 1.11538184, 1.15832657, 1.12313022, 1.05811674, 0.95219998, 0.93000444, 0.80966041)
New Loadshape.942 npts=24 interval=1 !código carga: A52244
~ pmult=(0.67255975, 0.64485739, 0.64018346, 0.62167023, 0.61216723, 0.61277296, 0.65417129, 0.7608296, 1.04763666, 1.28695549, 1.41175971, 1.44999753, 1.42638168, 1.34339063, 1.35311125, 1.35959759, 1.29437175, 1.29561489, 1.19585953, 1.093046, 0.95405522, 0.82880562, 0.74591732, 0.69428721)
~ qmult=(0.67255972, 0.64485736, 0.64018345, 0.62167033, 0.61216726, 0.61277293, 0.65417127, 0.76082963, 1.0476366, 1.28695548, 1.41175969, 1.44999769, 1.42638176, 1.34339052, 1.35311127, 1.35959758, 1.29437179, 1.29561482, 1.19585954, 1.09304593, 0.95405521, 0.82880561, 0.74591735, 0.69428722)
New Loadshape.940 npts=24 interval=1 !código carga: A52234
~ pmult=(0.83191403, 0.81189008, 0.79701908, 0.79076669, 0.7659231, 0.77533042, 0.69708324, 0.85594722, 1.07784281, 1.21439807, 1.24538898, 1.30135238, 1.19887724, 1.17732705, 1.12801716, 1.09414409, 1.08995798, 1.11538184, 1.15832666, 1.1231302, 1.05811682, 0.95219996, 0.93000451, 0.80966038)
~ qmult=(0.83191405, 0.8118901, 0.79701912, 0.79076677, 0.76592312, 0.77533041, 0.69708322, 0.85594722, 1.0778428, 1.21439811, 1.24538882, 1.30135243, 1.19887731, 1.17732705, 1.12801722, 1.09414398, 1.08995798, 1.1153818, 1.15832659, 1.12313025, 1.05811681, 0.95219998, 0.93000446, 0.80966041)
New Loadshape.939 npts=24 interval=1 !código carga: A52202
~ pmult=(0.96934427, 0.87078986, 0.80040829, 0.77496686, 0.75038238, 0.73473484, 0.76280252, 0.80220212, 0.87355351, 0.92748143, 0.95629358, 0.93122358, 1.01003062, 1.05020139, 0.99577029, 1.06273312, 1.09862261, 1.11485912, 1.19523418, 1.40035173, 1.29295585, 1.26878909, 1.25051626, 1.10575249)
~ qmult=(0.96934479, 0.87079008, 0.80040761, 0.77496727, 0.75038232, 0.73473499, 0.76280271, 0.8022025, 0.87355378, 0.92748115, 0.95629357, 0.93122406, 1.0100308, 1.05020166, 0.99576954, 1.06273284, 1.09862249, 1.11485883, 1.19523401, 1.40035218, 1.29295563, 1.2687893, 1.25051587, 1.10575203)
New Loadshape.937 npts=24 interval=1 !código carga: A52031
~ pmult=(0.83191402, 0.81189011, 0.79701919, 0.79076675, 0.76592306, 0.77533047, 0.69708324, 0.85594729, 1.07784281, 1.21439801, 1.24538907, 1.30135236, 1.19887718, 1.17732702, 1.12801717, 1.09414406, 1.08995797, 1.1153818, 1.15832662, 1.12313021, 1.05811681, 0.95219995, 0.93000445, 0.80966039)
~ qmult=(0.83191404, 0.81189013, 0.79701913, 0.79076674, 0.76592313, 0.77533046, 0.69708324, 0.85594722, 1.07784282, 1.21439814, 1.24538886, 1.30135244, 1.19887734, 1.17732702, 1.1280171, 1.09414398, 1.08995789, 1.11538186, 1.15832659, 1.12313022, 1.05811679, 0.9522, 0.93000441, 0.80966042)
New Loadshape.936 npts=24 interval=1 !código carga: A52001
~ pmult=(0.75902648, 0.71068164, 0.68686398, 0.66633245, 0.6524355, 0.64830594, 0.6858205, 0.77288328, 0.99691858, 1.18222449, 1.2790619, 1.29885546, 1.30508007, 1.25797149, 1.24900184, 1.27310769, 1.23734123, 1.24295259, 1.19567732, 1.18257799, 1.0527922, 0.95699241, 0.89292949, 0.81416546)
~ qmult=(0.7590264, 0.71068166, 0.686864, 0.66633253, 0.65243554, 0.64830592, 0.68582053, 0.77288333, 0.99691853, 1.18222453, 1.27906211, 1.29885567, 1.30508006, 1.25797147, 1.24900165, 1.2731077, 1.23734122, 1.24295271, 1.19567748, 1.1825779, 1.05279181, 0.95699241, 0.8929294, 0.81416541)
New Loadshape.935 npts=24 interval=1 !código carga: A52104
~ pmult=(0.83191407, 0.81189009, 0.79701912, 0.79076669, 0.76592311, 0.77533042, 0.69708326, 0.85594723, 1.0778428, 1.214398, 1.24538898, 1.30135236, 1.19887725, 1.17732708, 1.12801717, 1.09414409, 1.08995798, 1.11538185, 1.15832663, 1.1231302, 1.05811678, 0.9522, 0.93000449, 0.80966036)
~ qmult=(0.83191406, 0.81189014, 0.7970191, 0.79076676, 0.76592316, 0.77533041, 0.69708326, 0.85594726, 1.07784282, 1.21439808, 1.24538884, 1.30135238, 1.19887729, 1.17732712, 1.12801713, 1.09414398, 1.08995793, 1.11538189, 1.15832658, 1.12313023, 1.05811676, 0.95220004, 0.93000441, 0.80966037)
New Loadshape.933 npts=24 interval=1 !código carga: A52113
~ pmult=(0.8319141, 0.81189003, 0.79701914, 0.79076669, 0.76592312, 0.7753304, 0.69708322, 0.85594725, 1.07784284, 1.21439801, 1.245389, 1.30135235, 1.19887722, 1.17732704, 1.12801718, 1.09414413, 1.08995798, 1.11538183, 1.15832662, 1.12313024, 1.05811681, 0.95220001, 0.93000445, 0.80966035)
~ qmult=(0.83191403, 0.81189014, 0.79701909, 0.79076672, 0.76592312, 0.77533045, 0.69708324, 0.85594727, 1.07784277, 1.2143981, 1.24538888, 1.30135245, 1.19887729, 1.17732711, 1.12801716, 1.09414401, 1.089958, 1.11538181, 1.1583266, 1.12313021, 1.05811679, 0.95219997, 0.93000445, 0.80966035)
New Loadshape.932 npts=24 interval=1 !código carga: A52228
~ pmult=(0.83191408, 0.81189008, 0.79701913, 0.79076671, 0.76592309, 0.77533041, 0.69708324, 0.85594727, 1.07784286, 1.21439802, 1.24538902, 1.30135242, 1.19887719, 1.17732699, 1.12801723, 1.09414409, 1.08995794, 1.11538182, 1.15832662, 1.12313017, 1.05811681, 0.95219996, 0.93000445, 0.8096604)
~ qmult=(0.83191405, 0.81189008, 0.79701912, 0.79076678, 0.76592315, 0.77533039, 0.69708322, 0.85594724, 1.07784279, 1.21439815, 1.24538879, 1.3013524, 1.19887728, 1.17732701, 1.12801718, 1.09414405, 1.08995802, 1.11538188, 1.15832658, 1.12313021, 1.05811678, 0.9522, 0.93000445, 0.8096604)
New Loadshape.931 npts=24 interval=1 !código carga: A52240
~ pmult=(0.93782448, 0.86149725, 0.80615976, 0.78659319, 0.76128134, 0.75299652, 0.74630848, 0.82125103, 0.93181204, 1.00439349, 1.02980748, 1.02809164, 1.05297888, 1.07856126, 1.0230375, 1.06015777, 1.08747814, 1.10730905, 1.18333933, 1.32432984, 1.23191103, 1.18577311, 1.16899763, 1.02810976)
~ qmult=(0.9378245, 0.86149729, 0.80615971, 0.78659316, 0.76128137, 0.7529965, 0.74630841, 0.82125104, 0.93181198, 1.0043935, 1.02980747, 1.02809174, 1.05297889, 1.07856131, 1.02303742, 1.06015784, 1.0874781, 1.10730905, 1.18333931, 1.32432999, 1.231911, 1.18577299, 1.16899766, 1.02810978)
New Loadshape.929 npts=24 interval=1 !código carga: A52238
~ pmult=(0.83191407, 0.81189004, 0.79701911, 0.79076675, 0.76592312, 0.77533042, 0.69708322, 0.85594725, 1.07784283, 1.21439801, 1.24538903, 1.30135232, 1.1988772, 1.17732707, 1.12801719, 1.09414408, 1.08995793, 1.11538184, 1.1583266, 1.12313021, 1.05811679, 0.95220002, 0.93000451, 0.80966039)
~ qmult=(0.83191409, 0.81189014, 0.79701909, 0.79076674, 0.76592313, 0.77533044, 0.69708325, 0.85594719, 1.07784279, 1.2143981, 1.24538888, 1.30135244, 1.19887734, 1.17732708, 1.12801716, 1.09414403, 1.08995798, 1.11538185, 1.1583266, 1.12313015, 1.05811677, 0.95219996, 0.93000443, 0.80966036)
New Loadshape.928 npts=24 interval=1 !código carga: A52235
~ pmult=(0.83191404, 0.81189006, 0.7970191, 0.79076668, 0.76592312, 0.77533046, 0.69708326, 0.85594724, 1.07784283, 1.21439805, 1.24538894, 1.3013524, 1.19887722, 1.17732705, 1.12801723, 1.09414408, 1.08995791, 1.11538183, 1.15832659, 1.12313024, 1.05811681, 0.95220003, 0.93000444, 0.80966041)
~ qmult=(0.83191409, 0.81189012, 0.79701914, 0.79076675, 0.76592311, 0.7753304, 0.69708322, 0.85594723, 1.07784274, 1.21439808, 1.24538887, 1.30135241, 1.19887737, 1.17732707, 1.12801717, 1.09414405, 1.08995799, 1.11538189, 1.15832658, 1.12313018, 1.05811676, 0.95219994, 0.93000445, 0.8096604)
New Loadshape.926 npts=24 interval=1 !código carga: A52224
~ pmult=(0.8319141, 0.81189004, 0.79701912, 0.79076672, 0.76592308, 0.77533041, 0.69708322, 0.85594729, 1.07784286, 1.21439807, 1.24538897, 1.30135242, 1.19887721, 1.17732703, 1.12801719, 1.0941441, 1.0899579, 1.1153818, 1.15832664, 1.1231302, 1.05811675, 0.95220002, 0.93000448, 0.80966034)
~ qmult=(0.8319141, 0.81189012, 0.79701912, 0.79076676, 0.76592314, 0.77533042, 0.69708324, 0.85594722, 1.07784276, 1.2143981, 1.24538892, 1.30135237, 1.19887727, 1.17732705, 1.12801719, 1.09414399, 1.08995802, 1.11538189, 1.15832656, 1.12313022, 1.05811676, 0.95219995, 0.93000442, 0.80966041)
New Loadshape.925 npts=24 interval=1 !código carga: A52177
~ pmult=(0.83191404, 0.81189009, 0.79701917, 0.79076676, 0.76592311, 0.77533043, 0.69708326, 0.85594725, 1.0778428, 1.21439801, 1.24538896, 1.30135238, 1.19887724, 1.17732703, 1.12801717, 1.09414407, 1.08995794, 1.11538187, 1.1583266, 1.12313018, 1.05811683, 0.9522, 0.93000449, 0.80966034)
~ qmult=(0.83191409, 0.81189009, 0.79701913, 0.79076677, 0.76592312, 0.77533043, 0.69708323, 0.85594724, 1.07784273, 1.21439812, 1.24538891, 1.30135239, 1.19887736, 1.17732711, 1.12801719, 1.094144, 1.08995799, 1.1153818, 1.15832658, 1.12313016, 1.05811675, 0.95219995, 0.93000447, 0.80966037)
New Loadshape.924 npts=24 interval=1 !código carga: A52192
~ pmult=(0.83191409, 0.81189009, 0.79701913, 0.79076672, 0.76592308, 0.77533043, 0.69708326, 0.85594728, 1.07784285, 1.21439802, 1.24538902, 1.3013524, 1.19887722, 1.17732704, 1.12801714, 1.09414416, 1.08995791, 1.11538179, 1.15832662, 1.12313019, 1.05811674, 0.95219999, 0.93000448, 0.80966036)
~ qmult=(0.8319141, 0.81189013, 0.79701911, 0.79076673, 0.76592311, 0.7753304, 0.69708327, 0.85594721, 1.07784278, 1.21439812, 1.2453889, 1.30135241, 1.19887734, 1.17732704, 1.12801718, 1.094144, 1.08995798, 1.11538185, 1.15832663, 1.12313022, 1.05811675, 0.95219995, 0.9300044, 0.80966039)
New Loadshape.923 npts=24 interval=1 !código carga: A52191
~ pmult=(0.67255977, 0.64485741, 0.64018344, 0.62167026, 0.61216723, 0.61277294, 0.65417129, 0.76082963, 1.04763667, 1.28695551, 1.41175974, 1.44999752, 1.42638171, 1.34339053, 1.35311129, 1.35959752, 1.29437174, 1.29561487, 1.19585959, 1.09304593, 0.95405527, 0.8288056, 0.74591735, 0.69428718)
~ qmult=(0.67255972, 0.64485736, 0.64018345, 0.62167028, 0.61216722, 0.61277295, 0.65417126, 0.76082963, 1.04763658, 1.2869554, 1.41175975, 1.44999765, 1.42638184, 1.34339052, 1.35311128, 1.35959757, 1.29437178, 1.29561483, 1.1958596, 1.09304598, 0.95405522, 0.82880557, 0.74591736, 0.69428718)
New Loadshape.922 npts=24 interval=1 !código carga: A52176
~ pmult=(0.83191404, 0.81189005, 0.79701911, 0.79076672, 0.76592306, 0.77533041, 0.69708322, 0.85594724, 1.07784284, 1.21439801, 1.24538893, 1.30135241, 1.1988772, 1.1773271, 1.12801718, 1.09414412, 1.08995794, 1.11538186, 1.15832661, 1.12313024, 1.0581168, 0.95220003, 0.93000449, 0.80966038)
~ qmult=(0.83191404, 0.81189013, 0.79701915, 0.79076672, 0.76592315, 0.77533045, 0.69708325, 0.85594723, 1.07784276, 1.21439807, 1.24538888, 1.30135242, 1.19887729, 1.17732705, 1.1280172, 1.09414402, 1.08995797, 1.11538183, 1.15832662, 1.1231302, 1.05811677, 0.9522, 0.93000445, 0.80966037)
New Loadshape.920 npts=24 interval=1 !código carga: A52187
~ pmult=(0.83191408, 0.81189008, 0.79701913, 0.79076671, 0.76592306, 0.77533042, 0.69708325, 0.85594724, 1.07784284, 1.21439803, 1.24538896, 1.30135241, 1.19887719, 1.17732708, 1.12801714, 1.09414414, 1.08995792, 1.11538179, 1.15832662, 1.12313023, 1.05811679, 0.95220001, 0.93000448, 0.80966038)
~ qmult=(0.83191409, 0.81189013, 0.79701912, 0.79076675, 0.76592313, 0.77533039, 0.69708324, 0.85594721, 1.0778428, 1.21439811, 1.24538883, 1.30135247, 1.19887726, 1.1773271, 1.12801714, 1.09414402, 1.089958, 1.11538187, 1.15832658, 1.12313017, 1.05811675, 0.95219996, 0.93000446, 0.80966042)
New Loadshape.919 npts=24 interval=1 !código carga: A52185
~ pmult=(0.83191408, 0.81189007, 0.79701914, 0.7907667, 0.7659231, 0.77533042, 0.69708324, 0.85594727, 1.07784284, 1.21439805, 1.24538903, 1.30135242, 1.19887718, 1.17732701, 1.12801714, 1.09414413, 1.08995795, 1.11538179, 1.15832662, 1.12313016, 1.05811684, 0.95219997, 0.93000449, 0.80966035)
~ qmult=(0.83191406, 0.8118901, 0.79701911, 0.79076676, 0.76592314, 0.77533043, 0.69708326, 0.85594725, 1.07784279, 1.21439814, 1.24538888, 1.30135236, 1.19887729, 1.17732706, 1.12801721, 1.09414402, 1.08995793, 1.11538186, 1.15832665, 1.12313017, 1.0581168, 0.95219995, 0.93000443, 0.80966036)
New Loadshape.917 npts=24 interval=1 !código carga: A52183
~ pmult=(0.8319141, 0.81189003, 0.79701914, 0.79076669, 0.76592312, 0.7753304, 0.69708322, 0.85594725, 1.07784284, 1.21439801, 1.245389, 1.30135235, 1.19887722, 1.17732704, 1.12801718, 1.09414413, 1.08995798, 1.11538183, 1.15832662, 1.12313024, 1.05811681, 0.95220001, 0.93000445, 0.80966035)
~ qmult=(0.83191403, 0.81189014, 0.79701909, 0.79076672, 0.76592312, 0.77533045, 0.69708324, 0.85594727, 1.07784277, 1.2143981, 1.24538888, 1.30135245, 1.19887729, 1.17732711, 1.12801716, 1.09414401, 1.089958, 1.11538181, 1.1583266, 1.12313021, 1.05811679, 0.95219997, 0.93000445, 0.80966035)
New Loadshape.916 npts=24 interval=1 !código carga: A52180
~ pmult=(0.83191406, 0.81189008, 0.79701911, 0.79076675, 0.76592307, 0.77533044, 0.69708326, 0.85594727, 1.0778428, 1.21439805, 1.24538897, 1.30135242, 1.19887719, 1.17732701, 1.12801721, 1.0941441, 1.08995793, 1.1153818, 1.1583266, 1.12313017, 1.0581168, 0.95220003, 0.9300045, 0.80966036)
~ qmult=(0.83191411, 0.81189007, 0.79701912, 0.79076674, 0.76592316, 0.77533043, 0.69708322, 0.85594727, 1.0778428, 1.21439811, 1.24538884, 1.30135242, 1.19887732, 1.17732706, 1.12801716, 1.09414401, 1.08995792, 1.11538182, 1.15832664, 1.12313015, 1.05811679, 0.95219998, 0.93000443, 0.80966043)
New Loadshape.914 npts=24 interval=1 !código carga: A52170
~ pmult=(0.83191407, 0.81189004, 0.79701911, 0.79076671, 0.76592307, 0.7753304, 0.69708323, 0.85594726, 1.07784288, 1.21439798, 1.24538901, 1.30135242, 1.19887719, 1.17732708, 1.1280172, 1.09414415, 1.08995793, 1.11538183, 1.15832662, 1.12313017, 1.05811677, 0.95219995, 0.93000452, 0.8096604)
~ qmult=(0.83191406, 0.81189014, 0.79701915, 0.79076675, 0.76592311, 0.77533043, 0.69708326, 0.85594725, 1.07784275, 1.21439805, 1.24538887, 1.30135246, 1.1988773, 1.17732711, 1.12801717, 1.09414398, 1.08995793, 1.1153818, 1.15832667, 1.12313016, 1.05811679, 0.9522, 0.93000443, 0.8096604)
New Loadshape.913 npts=24 interval=1 !código carga: A52040