//--------------------------------------------------------------------------------
//Modelo de rede: cadastro GIS
//--------------------------------------------------------------------------------
//Transformadores trifásicos: ligacação Dy1
//--------------------------------------------------------------------------------
//Reinicia o programa
Clear
//--------------------------------------------------------------------------------
//Bloco com dados de fronteira
New Circuit.Rede_CAI_teste_sem_trafos_Ajustada_1
~ bus1=3259 basekv=88.00000000 pu=1.000 phases=3 mvasc3=600.0 600.0
//--------------------------------------------------------------------------------
//Bloco com dados de arranjos Z0/Z1
New Linecode.311 nphases=3 basefreq=60 units=km normamps=500.0 r1=0.20000000 x1=0.40000001 c1=0.000   ! código=SNP_BAR_CABO_EPR_15KV_CU_3X500MM__ABCN_id311
New Linecode.368 nphases=3 basefreq=60 units=km normamps=500.0 r1=0.20000000 x1=0.40000001 c1=0.000   ! código=SNP_SING_PVC_CU_1X500_MM__ABCN_id368
New Linecode.369 nphases=3 basefreq=60 units=km normamps=500.0 r1=0.20000000 x1=0.40000001 c1=0.000   ! código=SNP_SING_PVC_CU_1X70_MM__ABCN_id369
New Linecode.391 nphases=3 basefreq=60 units=km normamps=500.0 r1=0.20000000 x1=0.40000001 c1=0.000   ! código=SNP_Sing_XLPE_1KV_CU_70_mm__NEUTRO_ABCN_id391
New Linecode.462 nphases=3 basefreq=60 units=km normamps=500.0 r1=0.20000000 x1=0.40000001 c1=0.000   ! código=SNP_SING_PVC_CU_35_MM__ABCN_id462
New Linecode.386 nphases=3 basefreq=60 units=km normamps=500.0 r1=0.20000000 x1=0.40000001 c1=0.000   ! código=SNP_Sing_XLPE_1KV_CU_1x240_mm__ABCN_id386
New Linecode.437 nphases=3 basefreq=60 units=km normamps=500.0 r1=0.20000000 x1=0.40000001 c1=0.000   ! código=SNP_QUAD_XLPE_1KV_CU_4X1X35MM2_ABCN_id437
New Linecode.473 nphases=3 basefreq=60 units=km normamps=500.0 r1=0.20000000 x1=0.40000001 c1=0.000   ! código=SNP_TRIPLEX_XLPE_CU_3X1X35_MM2_ABCN_id473
New Linecode.402 nphases=3 basefreq=60 units=km normamps=500.0 r1=0.20000000 x1=0.40000001 c1=0.000   ! código=SNP_TRIP_EPRL_35KV_AL_3X1X750MM__ABCN_id402
New Linecode.37 nphases=3 basefreq=60 units=km normamps=428.0 r1=0.12192000 x1=0.24334000 c1=0.000   ! código=AES_SPACER_XLPE_25KV_AL_300_MM__ABCN_id37
New Linecode.38 nphases=3 basefreq=60 units=km normamps=212.0 r1=0.51857001 x1=0.29923001 c1=0.000   ! código=AES_SPACER_XLPE_25KV_AL_70_MM__ABCN_id38
New Linecode.36 nphases=3 basefreq=60 units=km normamps=361.0 r1=0.19673000 x1=0.26192001 c1=0.000   ! código=AES_SPACER_XLPE_25KV_AL_185_MM__ABCN_id36
New Linecode.90 nphases=3 basefreq=60 units=km normamps=420.0 r1=0.09412000 x1=0.12342000 c1=0.000   ! código=AES_Triplex_EPR_15KV_CU_3x1x240_mm_ABCN_id90
New Linecode.79 nphases=3 basefreq=60 units=km normamps=216.0 r1=0.31514001 x1=0.17095999 c1=0.000   ! código=AES_Quadr_EPR_35KV_CU_3x1x70_mm__ABCN_id79
New Linecode.74 nphases=3 basefreq=60 units=km normamps=435.0 r1=0.09408000 x1=0.13315000 c1=0.000   ! código=AES_QUADR_EPR_25KV_CU_3X1X240_MM__ABCN_id74
New Linecode.59 nphases=3 basefreq=60 units=km normamps=219.0 r1=0.31524000 x1=0.14808001 c1=0.000   ! código=AES_TRIP_XLPE_15KV_CU_3X1X70MM__ABCN_id59
New Linecode.86 nphases=3 basefreq=60 units=km normamps=117.0 r1=1.03840005 x1=0.16366000 c1=0.000   ! código=AES_Quadr_XLPE_15KV_AL_3x1x35_mm__ABCN_id86
New Linecode.109 nphases=3 basefreq=60 units=km normamps=212.0 r1=0.51857001 x1=0.29923001 c1=0.000   ! código=AES_SPACER_XLPE_25KV_AL_70_MM__BCN_id109
New Linecode.131 nphases=3 basefreq=60 units=km normamps=212.0 r1=0.51857001 x1=0.29923001 c1=0.000   ! código=AES_SPACER_XLPE_25KV_AL_70_MM__ABN_id131
New Linecode.28 nphases=3 basefreq=60 units=km normamps=435.0 r1=0.15200000 x1=0.11980000 c1=0.000   ! código=AES_PR__REU_15KV_AL_3X1X240_120MM__ABCN_id28
New Linecode.71 nphases=3 basefreq=60 units=km normamps=450.0 r1=0.09341000 x1=0.11466000 c1=0.000   ! código=AES_Quadr_EPR_15KV_AL_3x1x400_mm__ABCN_id71
//--------------------------------------------------------------------------------
//Bloco com dados de arranjos Cabo/Fase
New Linecode.138 nphases=4 basefreq=60 units=km normamps=364.0 kron=N   !código=AES001_SING_N__AL_336_4_MCM_ABCN_id138
~ rmatrix = (0.27114093 | 0.05775088 0.27114093 | 0.05775067 0.05775088 0.27114093 | 0.05794855 0.05794844 0.05794816 0.27153838 )
~ xmatrix = (0.88893354 | 0.53705806 0.88893354 | 0.48267201 0.53286821 0.88893354 | 0.43208885 0.42845601 0.42096600 0.88850695 )
New Linecode.139 nphases=4 basefreq=60 units=km normamps=71.0 kron=N   !código=AES002_SING_N___CU_16_MM__ABCN_id139
~ rmatrix = (1.42926097 | 0.05775088 1.42926097 | 0.05775067 0.05775088 1.42926097 | 0.05794855 0.05794844 0.05794816 1.42965841 )
~ xmatrix = (0.95869344 | 0.53705806 0.95869344 | 0.48267201 0.53286821 0.95869344 | 0.43208885 0.42845601 0.42096600 0.95826685 )
New Linecode.152 nphases=3 basefreq=60 units=km normamps=71.0 kron=N   !código=AES015_SING_N___CU_16_MM__CAN_id152
~ rmatrix = (1.42926097 | 0.05775067 1.42926097 | 0.05794855 0.05794816 1.42965841 )
~ xmatrix = (0.95869344 | 0.48267201 0.95869344 | 0.43208885 0.42096600 0.95826685 )
New Linecode.263 nphases=4 basefreq=60 units=km normamps=323.0 kron=N   !código=AES126_SING_XLPE_CU_4_0_AWG_ABCN_id263
~ rmatrix = (0.24116096 | 0.05775088 0.24116096 | 0.05775067 0.05775088 0.24116096 | 0.05794855 0.05794844 0.05794816 0.24155839 )
~ xmatrix = (0.89259559 | 0.53705806 0.89259559 | 0.48267201 0.53286821 0.89259559 | 0.43208885 0.42845601 0.42096600 0.89216900 )
New Linecode.189 nphases=4 basefreq=60 units=km normamps=236.0 kron=N   !código=AES052_SING_PVC_CU_1X70_MM__ABCN_id189
~ rmatrix = (0.37144095 | 0.05775088 0.37144095 | 0.05775067 0.05775088 0.37144095 | 0.05794855 0.05794844 0.05794816 0.37183839 )
~ xmatrix = (0.91108006 | 0.53705806 0.91108006 | 0.48267201 0.53286821 0.91108006 | 0.43208885 0.42845601 0.42096600 0.91065347 )
New Linecode.142 nphases=3 basefreq=60 units=km normamps=71.0 kron=N   !código=AES005_SING_N___CU_16_MM__ABN_id142
~ rmatrix = (1.42926097 | 0.05775088 1.42926097 | 0.05794855 0.05794844 1.42965841 )
~ xmatrix = (0.95869344 | 0.53705806 0.95869344 | 0.43208885 0.42845601 0.95826685 )
New Linecode.141 nphases=4 basefreq=60 units=km normamps=193.0 kron=N   !código=AES004_SING_PVC_AL_1_0_AWG_ABCN_id141
~ rmatrix = (0.73587096 | 0.05775088 0.73587096 | 0.05775067 0.05775088 0.73587096 | 0.05794855 0.05794844 0.05794816 0.73626840 )
~ xmatrix = (0.89614153 | 0.53705806 0.89614153 | 0.48267201 0.53286821 0.89614153 | 0.43208885 0.42845601 0.42096600 0.89571494 )
New Linecode.140 nphases=4 basefreq=60 units=km normamps=193.0 kron=N   !código=AES003_SING_N__AL_1_0_AWG_ABCN_id140
~ rmatrix = (0.73587096 | 0.05775088 0.73587096 | 0.05775067 0.05775088 0.73587096 | 0.05794855 0.05794844 0.05794816 0.73626840 )
~ xmatrix = (0.93348110 | 0.53705806 0.93348110 | 0.48267201 0.53286821 0.93348110 | 0.43208885 0.42845601 0.42096600 0.93305451 )
New Linecode.146 nphases=2 basefreq=60 units=km normamps=71.0 kron=N   !código=AES009_SING_N___CU_16_MM__CN_id146
~ rmatrix = (1.42926097 | 0.05794816 1.42965841 )
~ xmatrix = (0.95869344 | 0.42096600 0.95826685 )
New Linecode.143 nphases=3 basefreq=60 units=km normamps=71.0 kron=N   !código=AES006_SING_N___CU_16_MM__BCN_id143
~ rmatrix = (1.42926097 | 0.05775088 1.42926097 | 0.05794844 0.05794816 1.42965841 )
~ xmatrix = (0.95869344 | 0.53286821 0.95869344 | 0.42845601 0.42096600 0.95826685 )
New Linecode.210 nphases=3 basefreq=60 units=km normamps=193.0 kron=N   !código=AES073_SING_PVC_AL_1_0_AWG_ABN_id210
~ rmatrix = (0.73587096 | 0.05775088 0.73587096 | 0.05794855 0.05794844 0.73626840 )
~ xmatrix = (0.89614153 | 0.53705806 0.89614153 | 0.43208885 0.42845601 0.89571494 )
New Linecode.147 nphases=2 basefreq=60 units=km normamps=71.0 kron=N   !código=AES010_SING_N___CU_16_MM__AN_id147
~ rmatrix = (1.42926097 | 0.05794855 1.42965841 )
~ xmatrix = (0.95869344 | 0.43208885 0.95826685 )
New Linecode.150 nphases=2 basefreq=60 units=km normamps=193.0 kron=N   !código=AES013_SING_N__AL_1_0_AWG_CN_id150
~ rmatrix = (0.73587096 | 0.05794816 0.73626840 )
~ xmatrix = (0.93348110 | 0.42096600 0.93305451 )
New Linecode.190 nphases=2 basefreq=60 units=km normamps=193.0 kron=N   !código=AES053_SING_PVC_AL_1_0_AWG_AN_id190
~ rmatrix = (0.73587096 | 0.05794855 0.73626840 )
~ xmatrix = (0.89614153 | 0.43208885 0.89571494 )
New Linecode.236 nphases=4 basefreq=60 units=km normamps=61.0 kron=N   !código=AES099_SING_N__CU_16_MM__ABCN_id236
~ rmatrix = (1.42926097 | 0.05775088 1.42926097 | 0.05775067 0.05775088 1.42926097 | 0.05794855 0.05794844 0.05794816 1.42965841 )
~ xmatrix = (0.98543352 | 0.53705806 0.98543352 | 0.48267201 0.53286821 0.98543352 | 0.43208885 0.42845601 0.42096600 0.98500693 )
New Linecode.144 nphases=2 basefreq=60 units=km normamps=71.0 kron=N   !código=AES007_SING_N___CU_16_MM__BN_id144
~ rmatrix = (1.42926097 | 0.05794844 1.42965841 )
~ xmatrix = (0.95869344 | 0.42845601 0.95826685 )
New Linecode.188 nphases=4 basefreq=60 units=km normamps=554.0 kron=N   !código=AES051_SING_N__AL_556_5_MCM_ABCN_id188
~ rmatrix = (0.18716095 | 0.05775088 0.18716095 | 0.05775067 0.05775088 0.18716095 | 0.05794855 0.05794844 0.05794816 0.18755838 )
~ xmatrix = (0.86991614 | 0.53705806 0.86991614 | 0.48267201 0.53286821 0.86991614 | 0.43208885 0.42845601 0.42096600 0.86948955 )
New Linecode.148 nphases=2 basefreq=60 units=km normamps=193.0 kron=N   !código=AES011_SING_N__AL_1_0_AWG_BN_id148
~ rmatrix = (0.73587096 | 0.05794844 0.73626840 )
~ xmatrix = (0.93348110 | 0.42845601 0.93305451 )
New Linecode.145 nphases=3 basefreq=60 units=km normamps=193.0 kron=N   !código=AES008_SING_N__AL_1_0_AWG_BCN_id145
~ rmatrix = (0.73587096 | 0.05775088 0.73587096 | 0.05794844 0.05794816 0.73626840 )
~ xmatrix = (0.93348110 | 0.53286821 0.93348110 | 0.42845601 0.42096600 0.93305451 )
New Linecode.228 nphases=2 basefreq=60 units=km normamps=61.0 kron=N   !código=AES091_SING_N__CU_16_MM__BN_id228
~ rmatrix = (1.42926097 | 0.05794844 1.42965841 )
~ xmatrix = (0.98543352 | 0.42845601 0.98500693 )
New Linecode.211 nphases=4 basefreq=60 units=km normamps=554.0 kron=N   !código=AES074_SING_N__CAA_556_5_MCM_ABCN_id211
~ rmatrix = (0.18723096 | 0.05775088 0.18723096 | 0.05775067 0.05775088 0.18723096 | 0.05794855 0.05794844 0.05794816 0.18762839 )
~ xmatrix = (0.86802596 | 0.53705806 0.86802596 | 0.48267201 0.53286821 0.86802596 | 0.43208885 0.42845601 0.42096600 0.86759937 )
New Linecode.149 nphases=3 basefreq=60 units=km normamps=193.0 kron=N   !código=AES012_SING_N__AL_1_0_AWG_ABN_id149
~ rmatrix = (0.73587096 | 0.05775088 0.73587096 | 0.05794855 0.05794844 0.73626840 )
~ xmatrix = (0.93348110 | 0.53705806 0.93348110 | 0.43208885 0.42845601 0.93305451 )
New Linecode.303 nphases=3 basefreq=60 units=km normamps=61.0 kron=N   !código=AES166_SING_N__CU_16_MM__CAN_id303
~ rmatrix = (1.42926097 | 0.05775067 1.42926097 | 0.05794855 0.05794816 1.42965841 )
~ xmatrix = (0.98543352 | 0.48267201 0.98543352 | 0.43208885 0.42096600 0.98500693 )
New Linecode.183 nphases=3 basefreq=60 units=km normamps=193.0 kron=N   !código=AES046_SING_N__AL_1_0_AWG_CAN_id183
~ rmatrix = (0.73587096 | 0.05775067 0.73587096 | 0.05794855 0.05794816 0.73626840 )
~ xmatrix = (0.93348110 | 0.48267201 0.93348110 | 0.43208885 0.42096600 0.93305451 )
New Linecode.278 nphases=3 basefreq=60 units=km normamps=61.0 kron=N   !código=AES141_SING_N__CU_16_MM__ABN_id278
~ rmatrix = (1.42926097 | 0.05775088 1.42926097 | 0.05794855 0.05794844 1.42965841 )
~ xmatrix = (0.98543352 | 0.53705806 0.98543352 | 0.43208885 0.42845601 0.98500693 )
New Linecode.201 nphases=2 basefreq=60 units=km normamps=364.0 kron=N   !código=AES064_SING_N__AL_336_4_MCM_AN_id201
~ rmatrix = (0.27114093 | 0.05794855 0.27153838 )
~ xmatrix = (0.88893354 | 0.43208885 0.88850695 )
New Linecode.267 nphases=4 basefreq=60 units=km normamps=71.0 kron=N   !código=AES130_SING_N__CU_6_MM__ABCN_id267
~ rmatrix = (3.71344090 | 0.05775088 3.71344090 | 0.05775067 0.05775088 3.71344090 | 0.05794855 0.05794844 0.05794816 3.71383834 )
~ xmatrix = (1.02184963 | 0.53705806 1.02184963 | 0.48267201 0.53286821 1.02184963 | 0.43208885 0.42845601 0.42096600 1.02142298 )
//--------------------------------------------------------------------------------
//Bloco com dados de curvas típicas de demanda
New Loadshape.221  npts=24  interval=1  mult=(0.98802318 0.88500968 0.81049210 0.78461502 0.75908133 0.74241084 0.76963982 0.80480593 0.86259743 0.90485707 0.92762777 0.89857360 0.98382700 1.03174907 0.97327998 1.04404931 1.08630272 1.10348275 1.19519472 1.41969298 1.31428476 1.29648025 1.28227387 1.13164882)    ! código=Residencial
New Loadshape.222  npts=24  interval=1  mult=(0.66184809 0.64107463 0.65094664 0.67845975 0.73578879 0.91535083 1.01917929 1.20201301 1.25879653 1.26922296 1.31908241 1.35313228 1.19477469 1.24230900 1.30989296 1.26039346 1.18945635 1.17018301 1.01761601 0.95088503 0.83115784 0.75428989 0.67735159 0.69679492)    ! código=Industrial
New Loadshape.223  npts=24  interval=1  mult=(0.83191408 0.81189009 0.79701910 0.79076673 0.76592310 0.77533041 0.69708322 0.85594726 1.07784279 1.21439804 1.24538894 1.30135240 1.19887726 1.17732707 1.12801718 1.09414405 1.08995797 1.11538187 1.15832661 1.12313018 1.05811680 0.95220002 0.93000446 0.80966040)    ! código=Rural
New Loadshape.224  npts=24  interval=1  mult=(0.90103504 0.90717216 0.89595885 0.88158390 0.88732377 0.88428147 0.90327382 0.99314485 1.12772309 1.19717264 1.23347049 1.23295293 1.14892882 1.16497417 1.19143695 1.19205001 1.14986728 1.06412816 0.87212055 0.83373753 0.80591526 0.81885063 0.86283544 0.85006217)    ! código=A4
New Loadshape.225  npts=24  interval=1  mult=(0.67255972 0.64485739 0.64018344 0.62167027 0.61216725 0.61277292 0.65417129 0.76082965 1.04763658 1.28695544 1.41175977 1.44999759 1.42638176 1.34339058 1.35311128 1.35959760 1.29437177 1.29561484 1.19585957 1.09304591 0.95405524 0.82880560 0.74591732 0.69428721)    ! código=Comercial
New Loadshape.226  npts=24  interval=1  mult=(0.67255972 0.64485739 0.64018344 0.62167027 0.61216725 0.61277292 0.65417129 0.76082965 1.04763658 1.28695544 1.41175977 1.44999759 1.42638176 1.34339058 1.35311128 1.35959760 1.29437177 1.29561484 1.19585957 1.09304591 0.95405524 0.82880560 0.74591732 0.69428721)    ! código=Outros
//--------------------------------------------------------------------------------
//Bloco com dados de curvas típicas de IP
New Loadshape.227  npts=24  interval=1  mult=(0.99299997 1.00000000 0.99800003 0.98199999 0.97700000 0.98799998 0.31400001 0.14700000 0.00000000 0.00000000 0.00000000 0.00000000 0.00000000 0.00000000 0.00000000 0.00000000 0.01700000 0.64399999 0.97700000 0.97399998 0.97899997 0.98199999 0.97700000 0.99199998)    ! código=IP
//--------------------------------------------------------------------------------
//Bloco com dados de curvas próprias de demanda
New Loadshape.797  npts=24  interval=1   ! código=(null)
~ pmult=(0.00000000 0.00000000 0.00000000 0.00000000 0.00000000 0.00000000 0.00000000 0.00000000 0.00000000 0.00000000 0.00000000 0.00000000 0.00000000 0.00000000 0.00000000 0.00000000 0.00000000 0.00000000 0.00000000 0.00000000 0.00000000 0.00000000 0.00000000 0.00000000)
~ qmult=(0.00000000 0.00000000 0.00000000 0.00000000 0.00000000 0.00000000 0.00000000 0.00000000 0.00000000 0.00000000 0.00000000 0.00000000 0.00000000 0.00000000 0.00000000 0.00000000 0.00000000 0.00000000 0.00000000 0.00000000 0.00000000 0.00000000 0.00000000 0.00000000)
New Loadshape.796  npts=24  interval=1   ! código=(null)
~ pmult=(0.00000000 0.00000000 0.00000000 0.00000000 0.00000000 0.00000000 0.00000000 0.00000000 0.00000000 0.00000000 0.00000000 0.00000000 0.00000000 0.00000000 0.00000000 0.00000000 0.00000000 0.00000000 0.00000000 0.00000000 0.00000000 0.00000000 0.00000000 0.00000000)
~ qmult=(0.00000000 0.00000000 0.00000000 0.00000000 0.00000000 0.00000000 0.00000000 0.00000000 0.00000000 0.00000000 0.00000000 0.00000000 0.00000000 0.00000000 0.00000000 0.00000000 0.00000000 0.00000000 0.00000000 0.00000000 0.00000000 0.00000000 0.00000000 0.00000000)
New Loadshape.430  npts=24  interval=1   ! código=152EP010726
~ pmult=(0.00000000 0.00000000 0.00000000 0.00000000 0.00000000 0.00000000 0.00000000 0.00000000 0.00000000 0.00000000 0.00000000 0.00000000 0.00000000 0.00000000 0.00000000 0.00000000 0.00000000 0.00000000 0.00000000 0.00000000 0.00000000 0.00000000 0.00000000 0.00000000)
~ qmult=(0.00000000 0.00000000 0.00000000 0.00000000 0.00000000 0.00000000 0.00000000 0.00000000 0.00000000 0.00000000 0.00000000 0.00000000 0.00000000 0.00000000 0.00000000 0.00000000 0.00000000 0.00000000 0.00000000 0.00000000 0.00000000 0.00000000 0.00000000 0.00000000)
New Loadshape.433  npts=24  interval=1   ! código=152ET025018
~ pmult=(0.95576787 0.91476159 0.89054104 0.90466612 0.88544062 0.94985692 0.92351646 0.92547489 1.03348322 1.02465362 1.07976560 1.05495352 1.02293897 1.00216731 1.00890373 0.94029616 0.89935912 0.97095569 1.10193112 1.17473338 1.15577061 1.10613687 1.06675489 1.00717067)
~ qmult=(0.95954418 0.92105596 0.89656055 0.90860324 0.89026682 0.94828854 0.91981464 0.92079534 1.02548119 1.01663836 1.07290623 1.04795932 1.01898429 0.99608389 1.00544031 0.93765451 0.90177451 0.97263655 1.10253886 1.17860851 1.16030388 1.11344978 1.07191500 1.01269554)
New Loadshape.434  npts=24  interval=1   ! código=152IP19G431
~ pmult=(1.44124455 1.46737573 1.47581719 1.52323979 1.54160829 1.72558016 1.68297022 1.69089753 0.00000000 0.00000000 0.00000000 0.00000000 0.00000000 0.00000000 0.00000000 0.00000000 1.39275326 1.46263840 1.50437028 1.41949614 1.42497289 1.40029066 1.39445894 1.45228596)
~ qmult=(1.44649093 1.47346939 1.48239600 1.52803885 1.54479725 1.71905604 1.67224694 1.67424689 0.00000000 0.00000000 0.00000000 0.00000000 0.00000000 0.00000000 0.00000000 0.00000000 1.39231242 1.46013011 1.50094300 1.42001758 1.42635951 1.40380747 1.39938163 1.45630599)
New Loadshape.432  npts=24  interval=1   ! código=152ET025407
~ pmult=(0.83122902 0.78753629 0.75929861 0.76352820 0.75197718 0.82502147 0.83574645 0.90028455 1.04918730 1.13723205 1.16823158 1.17377116 1.16059482 1.15348104 1.12257872 1.10096867 1.06214328 1.13008559 1.17604728 1.17260837 1.08226828 1.00214650 0.95425715 0.89977642)
~ qmult=(0.83708440 0.79254582 0.76395082 0.76853568 0.75480160 0.82411953 0.83189243 0.89301730 1.04063570 1.12836383 1.16231156 1.16740606 1.15541680 1.14882603 1.11956445 1.10162936 1.06461205 1.13205836 1.17766688 1.17724826 1.08724933 1.00729430 0.95986785 0.90390160)
New Loadshape.435  npts=24  interval=1   ! código=152ET000657
~ pmult=(0.70876352 0.69372541 0.68625663 0.69084175 0.68611058 0.75437984 0.73329379 0.83317622 1.15159433 1.32433670 1.41584139 1.42633765 1.34006831 1.24922020 1.22219450 1.17902910 1.11247951 1.15976010 1.16301062 1.05195609 0.98884855 0.88358254 0.78900896 0.75618372)
~ qmult=(0.71374965 0.69865565 0.69197376 0.69562248 0.68896480 0.75354440 0.73064948 0.82719194 1.14331603 1.31477726 1.40914516 1.41908157 1.33503926 1.24438220 1.21966743 1.17971375 1.11543230 1.16136734 1.16457962 1.05646645 0.99297804 0.88902831 0.79420183 0.76047130)
New Loadshape.431  npts=24  interval=1   ! código=152ET007562
~ pmult=(0.69655117 0.67091249 0.65965195 0.66094246 0.65656290 0.73252549 0.75805153 0.86918539 1.11500931 1.29683658 1.34646686 1.38039021 1.33661654 1.29616514 1.26574427 1.24222475 1.17431858 1.23701349 1.20165851 1.08405121 0.96138596 0.84357692 0.77321086 0.74094743)
~ qmult=(0.70144485 0.67593658 0.66479081 0.66518013 0.66001171 0.73192180 0.75544735 0.86317910 1.10625610 1.28770103 1.33960197 1.37297243 1.33212297 1.29075662 1.26268611 1.24273277 1.17817355 1.23931855 1.20312252 1.08828099 0.96567161 0.84861577 0.77859606 0.74547860)
New Loadshape.436  npts=24  interval=1   ! código=152ET004501
~ pmult=(0.95366730 0.90587602 0.87540302 0.88652867 0.86765038 0.93594255 0.92449246 0.93507158 1.01268053 1.00862168 1.04468140 1.02565869 1.01460540 1.01591243 1.01111711 0.96010058 0.92907704 1.00437824 1.12478110 1.20263267 1.15946263 1.10928014 1.07773812 1.01464028)
~ qmult=(0.95957251 0.91180316 0.88182059 0.89151437 0.87129146 0.93396193 0.92120436 0.92729929 1.00439442 1.00166606 1.03835663 1.01911539 1.01039617 1.01115372 1.00752004 0.95910396 0.93109200 1.00520178 1.12495867 1.20594911 1.16398486 1.11571186 1.08432202 1.01860566)
New Loadshape.440  npts=24  interval=1   ! código=152ET029938
~ pmult=(0.64842613 0.63348515 0.63278672 0.63439860 0.63239192 0.70873316 0.73762835 0.86147821 1.14604370 1.35928593 1.42179489 1.46677186 1.40407312 1.34447670 1.32324610 1.28852824 1.20451333 1.26601355 1.20107380 1.03486177 0.90699867 0.77453053 0.69447634 0.67398323)
~ qmult=(0.65292963 0.63815271 0.63762224 0.63838812 0.63565673 0.70817265 0.73513419 0.85558973 1.13750060 1.35030710 1.41526479 1.45956770 1.39994134 1.33937910 1.32052328 1.28944914 1.20837291 1.26834315 1.20267268 1.03904298 0.91120766 0.77926332 0.69938267 0.67813558)
New Loadshape.438  npts=24  interval=1   ! código=152IP19G299
~ pmult=(1.44034872 1.46790380 1.47722199 1.52510141 1.54441658 1.72992394 1.68795051 1.69599905 0.00000000 0.00000000 0.00000000 0.00000000 0.00000000 0.00000000 0.00000000 0.00000000 1.39404931 1.46313776 1.50254726 1.41500604 1.42034120 1.39582472 1.39025573 1.44997197)
~ qmult=(1.44528144 1.47343073 1.48310209 1.52919338 1.54692851 1.72289959 1.67680497 1.67903103 0.00000000 0.00000000 0.00000000 0.00000000 0.00000000 0.00000000 0.00000000 0.00000000 1.39362262 1.46086307 1.49986345 1.41637525 1.42269235 1.40005360 1.39568781 1.45417012)
New Loadshape.437  npts=24  interval=1   ! código=152ET132570
~ pmult=(0.00000000 0.00000000 0.00000000 0.00000000 0.00000000 0.00000000 0.00000000 0.00000000 0.00000000 0.00000000 0.00000000 0.00000000 0.00000000 0.00000000 0.00000000 0.00000000 0.00000000 0.00000000 0.00000000 0.00000000 0.00000000 0.00000000 0.00000000 0.00000000)
~ qmult=(0.00000000 0.00000000 0.00000000 0.00000000 0.00000000 0.00000000 0.00000000 0.00000000 0.00000000 0.00000000 0.00000000 0.00000000 0.00000000 0.00000000 0.00000000 0.00000000 0.00000000 0.00000000 0.00000000 0.00000000 0.00000000 0.00000000 0.00000000 0.00000000)
New Loadshape.439  npts=24  interval=1   ! código=152ET071563
~ pmult=(0.89577912 0.85727032 0.83183970 0.84106373 0.82561794 0.89287514 0.87118289 0.90335175 1.04854275 1.08817559 1.14303753 1.12666918 1.09217475 1.06401795 1.05074085 1.00256873 0.96894999 1.03385979 1.13179773 1.16589830 1.12693234 1.06537635 1.01447068 0.95780689)
~ qmult=(0.90064749 0.86183901 0.83735429 0.84512485 0.82862380 0.89148323 0.86708164 0.89577059 1.04109095 1.08153825 1.13766546 1.12071060 1.08845131 1.06019673 1.04801009 1.00279560 0.97094857 1.03423725 1.13182630 1.16951352 1.13100084 1.07060542 1.02066585 0.96281836)
New Loadshape.449  npts=24  interval=1   ! código=152ET023400
~ pmult=(0.00000000 0.00000000 0.00000000 0.00000000 0.00000000 0.00000000 0.00000000 0.00000000 0.00000000 0.00000000 0.00000000 0.00000000 0.00000000 0.00000000 0.00000000 0.00000000 0.00000000 0.00000000 0.00000000 0.00000000 0.00000000 0.00000000 0.00000000 0.00000000)
~ qmult=(0.00000000 0.00000000 0.00000000 0.00000000 0.00000000 0.00000000 0.00000000 0.00000000 0.00000000 0.00000000 0.00000000 0.00000000 0.00000000 0.00000000 0.00000000 0.00000000 0.00000000 0.00000000 0.00000000 0.00000000 0.00000000 0.00000000 0.00000000 0.00000000)
New Loadshape.448  npts=24  interval=1   ! código=152IP19G613
~ pmult=(1.44034848 1.46790388 1.47722178 1.52510136 1.54441659 1.72992416 1.68795043 1.69599931 0.00000000 0.00000000 0.00000000 0.00000000 0.00000000 0.00000000 0.00000000 0.00000000 1.39404948 1.46313765 1.50254735 1.41500598 1.42034129 1.39582473 1.39025572 1.44997180)
~ qmult=(1.44528161 1.47343049 1.48310206 1.52919348 1.54692847 1.72289964 1.67680466 1.67903086 0.00000000 0.00000000 0.00000000 0.00000000 0.00000000 0.00000000 0.00000000 0.00000000 1.39362254 1.46086312 1.49986357 1.41637516 1.42269235 1.40005390 1.39568795 1.45417014)
New Loadshape.447  npts=24  interval=1   ! código=152IP19G297
~ pmult=(1.44034848 1.46790388 1.47722178 1.52510136 1.54441659 1.72992416 1.68795043 1.69599931 0.00000000 0.00000000 0.00000000 0.00000000 0.00000000 0.00000000 0.00000000 0.00000000 1.39404948 1.46313765 1.50254735 1.41500598 1.42034129 1.39582473 1.39025572 1.44997180)
~ qmult=(1.44528161 1.47343049 1.48310206 1.52919348 1.54692847 1.72289964 1.67680466 1.67903086 0.00000000 0.00000000 0.00000000 0.00000000 0.00000000 0.00000000 0.00000000 0.00000000 1.39362254 1.46086312 1.49986357 1.41637516 1.42269235 1.40005390 1.39568795 1.45417014)
New Loadshape.452  npts=24  interval=1   ! código=152ET024923
~ pmult=(0.70388004 0.69667718 0.69066365 0.69623190 0.69235108 0.75471564 0.69636045 0.79481099 1.18545636 1.36270441 1.48874403 1.48070512 1.35979663 1.22689476 1.19530961 1.14316355 1.07985103 1.11112519 1.13964163 1.02826260 1.00882450 0.91094212 0.79345358 0.75943396)
~ qmult=(0.70858321 0.70176734 0.69597173 0.70012783 0.69620409 0.75415408 0.69411392 0.78897897 1.17645510 1.35353495 1.48135889 1.47320461 1.35589491 1.22224709 1.19270184 1.14387560 1.08283279 1.11240330 1.14089924 1.03177440 1.01323621 0.91678272 0.79841063 0.76448654)
New Loadshape.453  npts=24  interval=1   ! código=152ET051639
~ pmult=(0.64842614 0.63348511 0.63278671 0.63439866 0.63239187 0.70873320 0.73762838 0.86147810 1.14604369 1.35928590 1.42179497 1.46677194 1.40407307 1.34447668 1.32324605 1.28852825 1.20451329 1.26601352 1.20107386 1.03486183 0.90699865 0.77453062 0.69447623 0.67398327)
~ qmult=(0.65292973 0.63815272 0.63762222 0.63838809 0.63565680 0.70817262 0.73513420 0.85558975 1.13750061 1.35030710 1.41526476 1.45956785 1.39994131 1.33937904 1.32052333 1.28944934 1.20837281 1.26834299 1.20267278 1.03904297 0.91120752 0.77926322 0.69938270 0.67813553)
New Loadshape.455  npts=24  interval=1   ! código=(null)
~ pmult=(0.00000000 0.00000000 0.00000000 0.00000000 0.00000000 0.00000000 0.00000000 0.00000000 0.00000000 0.00000000 0.00000000 0.00000000 0.00000000 0.00000000 0.00000000 0.00000000 0.00000000 0.00000000 0.00000000 0.00000000 0.00000000 0.00000000 0.00000000 0.00000000)
~ qmult=(0.00000000 0.00000000 0.00000000 0.00000000 0.00000000 0.00000000 0.00000000 0.00000000 0.00000000 0.00000000 0.00000000 0.00000000 0.00000000 0.00000000 0.00000000 0.00000000 0.00000000 0.00000000 0.00000000 0.00000000 0.00000000 0.00000000 0.00000000 0.00000000)
New Loadshape.458  npts=24  interval=1   ! código=152IP19G479
~ pmult=(1.44124447 1.46737585 1.47581700 1.52323987 1.54160811 1.72558003 1.68297018 1.69089742 0.00000000 0.00000000 0.00000000 0.00000000 0.00000000 0.00000000 0.00000000 0.00000000 1.39275341 1.46263847 1.50437037 1.41949600 1.42497294 1.40029076 1.39445907 1.45228606)
~ qmult=(1.44649108 1.47346944 1.48239617 1.52803859 1.54479735 1.71905596 1.67224675 1.67424681 0.00000000 0.00000000 0.00000000 0.00000000 0.00000000 0.00000000 0.00000000 0.00000000 1.39231247 1.46013029 1.50094298 1.42001779 1.42635955 1.40380745 1.39938150 1.45630583)
New Loadshape.457  npts=24  interval=1   ! código=152IP19G481
~ pmult=(1.44124447 1.46737585 1.47581700 1.52323987 1.54160811 1.72558003 1.68297018 1.69089742 0.00000000 0.00000000 0.00000000 0.00000000 0.00000000 0.00000000 0.00000000 0.00000000 1.39275341 1.46263847 1.50437037 1.41949600 1.42497294 1.40029076 1.39445907 1.45228606)
~ qmult=(1.44649108 1.47346944 1.48239617 1.52803859 1.54479735 1.71905596 1.67224675 1.67424681 0.00000000 0.00000000 0.00000000 0.00000000 0.00000000 0.00000000 0.00000000 0.00000000 1.39231247 1.46013029 1.50094298 1.42001779 1.42635955 1.40380745 1.39938150 1.45630583)
New Loadshape.459  npts=24  interval=1   ! código=152IP19F043
~ pmult=(1.44034848 1.46790388 1.47722178 1.52510136 1.54441659 1.72992416 1.68795043 1.69599931 0.00000000 0.00000000 0.00000000 0.00000000 0.00000000 0.00000000 0.00000000 0.00000000 1.39404948 1.46313765 1.50254735 1.41500598 1.42034129 1.39582473 1.39025572 1.44997180)
~ qmult=(1.44528158 1.47343055 1.48310202 1.52919343 1.54692853 1.72289968 1.67680470 1.67903090 0.00000000 0.00000000 0.00000000 0.00000000 0.00000000 0.00000000 0.00000000 0.00000000 1.39362251 1.46086318 1.49986353 1.41637523 1.42269241 1.40005376 1.39568791 1.45417010)
New Loadshape.445  npts=24  interval=1   ! código=152IP19G433
~ pmult=(1.44124444 1.46737584 1.47581730 1.52323989 1.54160806 1.72558006 1.68297011 1.69089749 0.00000000 0.00000000 0.00000000 0.00000000 0.00000000 0.00000000 0.00000000 0.00000000 1.39275329 1.46263846 1.50437027 1.41949605 1.42497297 1.40029086 1.39445896 1.45228597)
~ qmult=(1.44649109 1.47346950 1.48239596 1.52803877 1.54479733 1.71905581 1.67224701 1.67424679 0.00000000 0.00000000 0.00000000 0.00000000 0.00000000 0.00000000 0.00000000 0.00000000 1.39231233 1.46013021 1.50094314 1.42001777 1.42635949 1.40380745 1.39938141 1.45630594)
New Loadshape.444  npts=24  interval=1   ! código=152IP19G615
~ pmult=(1.44319581 1.47135890 1.48087594 1.52924261 1.54791957 1.73271546 1.68713227 1.69231003 0.00000000 0.00000000 0.00000000 0.00000000 0.00000000 0.00000000 0.00000000 0.00000000 1.38760164 1.45754837 1.49844562 1.41251027 1.41922147 1.39590695 1.39169785 1.45231723)
~ qmult=(1.44861893 1.47749605 1.48749429 1.53387581 1.55070905 1.72498739 1.67519140 1.67448595 0.00000000 0.00000000 0.00000000 0.00000000 0.00000000 0.00000000 0.00000000 0.00000000 1.38794167 1.45582088 1.49558573 1.41363123 1.42106302 1.39978991 1.39690453 1.45640415)
New Loadshape.446  npts=24  interval=1   ! código=152ET024031
~ pmult=(0.64842612 0.63348518 0.63278670 0.63439864 0.63239194 0.70873321 0.73762836 0.86147820 1.14604376 1.35928604 1.42179491 1.46677183 1.40407301 1.34447666 1.32324605 1.28852822 1.20451323 1.26601360 1.20107370 1.03486178 0.90699868 0.77453059 0.69447630 0.67398326)